#	Name:			7-17a
#	Creating user name:	jeff
#	Creation time:		Fri Dec 13 09:50:56 2002

#	Modifying user name:	jeff
#	Modification time:	Fri Dec 13 09:50:58 2002

@<TRIPOS>MOLECULE
7-17a
   37    39     1     0     1
SMALL
USER_CHARGES
****
From 3DB ct
@<TRIPOS>ATOM
      1 C          26.499000   22.061000   16.472000 C.ar      1 <1>         0.145100 
      2 C          25.604000   21.447000   17.386000 C.ar      1 <1>        -0.110600 
      3 C          24.148000   21.384000   17.156000 C.ar      1 <1>         0.220900 
      4 C          23.515000   22.285000   16.282000 C.ar      1 <1>        -0.255000 
      5 H          24.099000   23.044000   15.762000 H         1 <1>         0.171200 
      6 C          22.136000   22.227000   16.066000 C.ar      1 <1>         0.053500 
      7 H          21.667000   22.933000   15.383000 H         1 <1>         0.177700 
      8 C          21.373000   21.259000   16.725000 C.ar      1 <1>        -0.586200 
      9 C          21.977000   20.362000   17.607000 C.ar      1 <1>        -0.041300 
     10 H          21.392000   19.610000   18.130000 H         1 <1>         0.197800 
     11 C          23.358000   20.428000   17.818000 C.ar      1 <1>        -0.184600 
     12 H          23.820000   19.718000   18.505000 H         1 <1>         0.160100 
     13 S          19.622000   21.211000   16.460000 S.o2      1 <1>         2.445600 
     14 O          19.201000   22.473000   15.878000 O.2       1 <1>        -0.996900 
     15 O          18.966000   20.689000   17.646000 O.2       1 <1>        -0.996400 
     16 N          19.475000   20.038000   15.274000 N.pl3     1 <1>        -1.302700 
     17 H          19.080000   20.428000   14.415000 H         1 <1>         0.482100 
     18 H          18.927000   19.242000   15.610000 H         1 <1>         0.482900 
     19 C          26.122000   20.883000   18.570000 C.ar      1 <1>        -0.139400 
     20 H          25.451000   20.410000   19.287000 H         1 <1>         0.149200 
     21 C          27.486000   20.925000   18.858000 C.ar      1 <1>        -0.153000 
     22 H          27.862000   20.485000   19.780000 H         1 <1>         0.156900 
     23 C          28.362000   21.531000   17.967000 C.ar      1 <1>        -0.116600 
     24 H          29.428000   21.567000   18.186000 H         1 <1>         0.152800 
     25 C          27.873000   22.093000   16.787000 C.ar      1 <1>        -0.221900 
     26 H          28.579000   22.557000   16.098000 H         1 <1>         0.168500 
     27 C          26.055000   22.658000   15.199000 C.ar      1 <1>        -0.194200 
     28 C          26.278000   24.021000   14.929000 C.ar      1 <1>         0.017500 
     29 H          26.776000   24.651000   15.665000 H         1 <1>         0.144200 
     30 C          25.859000   24.590000   13.724000 C.ar      1 <1>        -0.448600 
     31 H          26.031000   25.644000   13.523000 H         1 <1>         0.236800 
     32 C          25.217000   23.799000   12.780000 C.ar      1 <1>         0.599200 
     33 C          24.989000   22.450000   13.016000 C.ar      1 <1>        -0.429300 
     34 H          24.487000   21.844000   12.267000 H         1 <1>         0.229900 
     35 C          25.409000   21.881000   14.221000 C.ar      1 <1>         0.022600 
     36 H          25.229000   20.820000   14.395000 H         1 <1>         0.131700 
     37 F          24.815000   24.345000   11.624000 F         1 <1>        -0.369800 
@<TRIPOS>BOND
     1    1    2 ar   
     2    2    3 1    
     3    3    4 ar   
     4    4    5 1    
     5    4    6 ar   
     6    6    7 1    
     7    6    8 ar   
     8    8    9 ar   
     9    9   10 1    
    10    9   11 ar   
    11   11   12 1    
    12   11    3 ar   
    13    8   13 1    
    14   13   14 2    
    15   13   15 2    
    16   13   16 1    
    17   16   17 1    
    18   16   18 1    
    19    2   19 ar   
    20   19   20 1    
    21   19   21 ar   
    22   21   22 1    
    23   21   23 ar   
    24   23   24 1    
    25   23   25 ar   
    26   25   26 1    
    27   25    1 ar   
    28    1   27 1    
    29   27   28 ar   
    30   28   29 1    
    31   28   30 ar   
    32   30   31 1    
    33   30   32 ar   
    34   32   33 ar   
    35   33   34 1    
    36   33   35 ar   
    37   35   36 1    
    38   35   27 ar   
    39   32   37 1    
@<TRIPOS>SUBSTRUCTURE
     1 ****        1 TEMP              0 ****  ****    0 ROOT 
@<TRIPOS>SET
UNITY_3DHIT     STATIC     ATOMS    <user>   **** Atoms matching 3D or FLEX Search
0
