#	Name:			7-17b
#	Creating user name:	jeff
#	Creation time:		Fri Dec 13 09:50:58 2002

#	Modifying user name:	jeff
#	Modification time:	Fri Dec 13 09:51:00 2002

@<TRIPOS>MOLECULE
7-17b
   37    39     1     0     1
SMALL
USER_CHARGES
****
From 3DB ct
@<TRIPOS>ATOM
      1 C          26.504000   22.049000   16.469000 C.ar      1 <1>         0.082100 
      2 C          25.612000   21.453000   17.396000 C.ar      1 <1>        -0.056000 
      3 C          24.161000   21.393000   17.161000 C.ar      1 <1>         0.181600 
      4 C          23.541000   22.292000   16.277000 C.ar      1 <1>        -0.227600 
      5 H          24.133000   23.046000   15.759000 H         1 <1>         0.159200 
      6 C          22.164000   22.233000   16.047000 C.ar      1 <1>         0.048000 
      7 H          21.702000   22.936000   15.357000 H         1 <1>         0.179100 
      8 C          21.394000   21.268000   16.703000 C.ar      1 <1>        -0.589000 
      9 C          21.990000   20.372000   17.593000 C.ar      1 <1>        -0.037000 
     10 H          21.399000   19.621000   18.113000 H         1 <1>         0.198300 
     11 C          23.368000   20.438000   17.818000 C.ar      1 <1>        -0.181300 
     12 H          23.826000   19.732000   18.511000 H         1 <1>         0.160300 
     13 S          19.645000   21.221000   16.425000 S.o2      1 <1>         2.448300 
     14 O          19.227000   22.488000   15.853000 O.2       1 <1>        -0.995300 
     15 O          18.980000   20.686000   17.600000 O.2       1 <1>        -0.996300 
     16 N          19.509000   20.060000   15.225000 N.pl3     1 <1>        -1.299800 
     17 H          19.113000   20.458000   14.369000 H         1 <1>         0.481100 
     18 H          18.965000   19.257000   15.550000 H         1 <1>         0.482400 
     19 C          26.131000   20.903000   18.584000 C.ar      1 <1>        -0.165900 
     20 H          25.460000   20.444000   19.310000 H         1 <1>         0.157300 
     21 C          27.498000   20.939000   18.859000 C.ar      1 <1>        -0.134900 
     22 H          27.878000   20.511000   19.785000 H         1 <1>         0.158500 
     23 C          28.373000   21.520000   17.948000 C.ar      1 <1>        -0.144100 
     24 H          29.441000   21.548000   18.158000 H         1 <1>         0.161100 
     25 C          27.880000   22.071000   16.765000 C.ar      1 <1>        -0.159500 
     26 H          28.581000   22.523000   16.063000 H         1 <1>         0.146600 
     27 C          26.040000   22.649000   15.208000 C.ar      1 <1>        -0.289700 
     28 C          26.263000   24.011000   14.943000 C.ar      1 <1>         0.452000 
     29 H          26.784000   24.626000   15.673000 H         1 <1>         0.052500 
     30 C          25.812000   24.581000   13.751000 C.ar      1 <1>        -0.946500 
     31 C          25.140000   23.797000   12.816000 C.ar      1 <1>         0.966900 
     32 C          24.915000   22.446000   13.057000 C.ar      1 <1>        -0.557000 
     33 H          24.390000   21.844000   12.321000 H         1 <1>         0.253500 
     34 C          25.365000   21.874000   14.249000 C.ar      1 <1>         0.106300 
     35 H          25.183000   20.815000   14.431000 H         1 <1>         0.132300 
     36 F          24.701000   24.331000   11.666000 F         1 <1>        -0.428100 
     37 Cl         26.092000   26.253000   13.449000 Cl        1 <1>         0.200800 
@<TRIPOS>BOND
     1    1    2 ar   
     2    2    3 1    
     3    3    4 ar   
     4    4    5 1    
     5    4    6 ar   
     6    6    7 1    
     7    6    8 ar   
     8    8    9 ar   
     9    9   10 1    
    10    9   11 ar   
    11   11   12 1    
    12   11    3 ar   
    13    8   13 1    
    14   13   14 2    
    15   13   15 2    
    16   13   16 1    
    17   16   17 1    
    18   16   18 1    
    19    2   19 ar   
    20   19   20 1    
    21   19   21 ar   
    22   21   22 1    
    23   21   23 ar   
    24   23   24 1    
    25   23   25 ar   
    26   25   26 1    
    27   25    1 ar   
    28    1   27 1    
    29   27   28 ar   
    30   28   29 1    
    31   28   30 ar   
    32   30   31 ar   
    33   31   32 ar   
    34   32   33 1    
    35   32   34 ar   
    36   34   35 1    
    37   34   27 ar   
    38   31   36 1    
    39   30   37 1    
@<TRIPOS>SUBSTRUCTURE
     1 ****        1 TEMP              0 ****  ****    0 ROOT 
@<TRIPOS>SET
UNITY_3DHIT     STATIC     ATOMS    <user>   **** Atoms matching 3D or FLEX Search
0
