#	Name:			7-20j
#	Creating user name:	jeff
#	Creation time:		Fri Dec 13 09:51:28 2002

#	Modifying user name:	jeff
#	Modification time:	Fri Dec 13 09:51:30 2002

@<TRIPOS>MOLECULE
7-20j
   41    44     1     0     1
SMALL
USER_CHARGES
****
From 3DB ct
@<TRIPOS>ATOM
      1 C          26.500000   22.080000   16.478000 C.ar      1 <1>         0.135900 
      2 C          25.609000   21.423000   17.376000 C.ar      1 <1>        -0.225300 
      3 C          24.149000   21.367000   17.158000 C.ar      1 <1>         0.406600 
      4 C          23.520000   22.279000   16.291000 C.ar      1 <1>        -0.326900 
      5 H          24.108000   23.034000   15.773000 H         1 <1>         0.208000 
      6 C          22.139000   22.237000   16.078000 C.ar      1 <1>         0.003700 
      7 H          21.683000   22.951000   15.396000 H         1 <1>         0.190600 
      8 C          21.369000   21.287000   16.747000 C.ar      1 <1>        -0.526400 
      9 C          21.967000   20.375000   17.619000 C.ar      1 <1>        -0.013300 
     10 H          21.375000   19.630000   18.145000 H         1 <1>         0.189200 
     11 C          23.351000   20.420000   17.823000 C.ar      1 <1>        -0.333300 
     12 H          23.804000   19.701000   18.506000 H         1 <1>         0.205300 
     13 S          19.614000   21.222000   16.450000 S.o2      1 <1>         2.196900 
     14 O          19.205000   22.494000   15.864000 O.2       1 <1>        -0.971700 
     15 O          18.968000   20.782000   17.684000 O.2       1 <1>        -0.973100 
     16 C          19.441000   19.950000   15.230000 C.3       1 <1>        -0.720100 
     17 H          18.378000   19.829000   15.012000 H         1 <1>         0.236100 
     18 H          19.846000   19.018000   15.629000 H         1 <1>         0.189500 
     19 H          19.975000   20.254000   14.327000 H         1 <1>         0.187800 
     20 C          26.131000   20.833000   18.547000 C.ar      1 <1>        -0.263600 
     21 H          25.477000   20.323000   19.250000 H         1 <1>         0.233800 
     22 C          27.485000   20.913000   18.839000 C.ar      1 <1>         0.327000 
     23 C          28.348000   21.574000   17.980000 C.ar      1 <1>         0.384700 
     24 C          27.869000   22.151000   16.809000 C.ar      1 <1>        -0.393000 
     25 H          28.576000   22.648000   16.150000 H         1 <1>         0.268800 
     26 F          29.653000   21.659000   18.273000 F         1 <1>        -0.312200 
     27 F          27.956000   20.349000   19.962000 F         1 <1>        -0.305900 
     28 C          26.057000   22.676000   15.198000 C.ar      1 <1>        -0.016300 
     29 C          26.273000   24.042000   14.932000 C.ar      1 <1>        -0.346300 
     30 H          26.759000   24.688000   15.657000 H         1 <1>         0.260000 
     31 C          25.843000   24.552000   13.723000 C.ar      1 <1>         0.227700 
     32 C          25.223000   23.767000   12.781000 C.ar      1 <1>         0.264600 
     33 C          24.999000   22.425000   12.992000 C.ar      1 <1>        -0.342900 
     34 H          24.515000   21.808000   12.242000 H         1 <1>         0.243000 
     35 C          25.425000   21.881000   14.210000 C.ar      1 <1>        -0.119000 
     36 H          25.260000   20.820000   14.390000 H         1 <1>         0.167900 
     37 O          24.879000   24.464000   11.665000 O.3       1 <1>        -0.407700 
     38 C          25.321000   25.794000   12.025000 C.3       1 <1>         0.276600 
     39 H          24.450000   26.458000   12.044000 H         1 <1>         0.097600 
     40 H          26.025000   26.149000   11.263000 H         1 <1>         0.099700 
     41 O          25.971000   25.844000   13.317000 O.3       1 <1>        -0.404000 
@<TRIPOS>BOND
     1    1    2 ar   
     2    2    3 1    
     3    3    4 ar   
     4    4    5 1    
     5    4    6 ar   
     6    6    7 1    
     7    6    8 ar   
     8    8    9 ar   
     9    9   10 1    
    10    9   11 ar   
    11   11   12 1    
    12   11    3 ar   
    13    8   13 1    
    14   13   14 2    
    15   13   15 2    
    16   13   16 1    
    17   16   17 1    
    18   16   18 1    
    19   16   19 1    
    20    2   20 ar   
    21   20   21 1    
    22   20   22 ar   
    23   22   23 ar   
    24   23   24 ar   
    25   24   25 1    
    26   24    1 ar   
    27   23   26 1    
    28   22   27 1    
    29    1   28 1    
    30   28   29 ar   
    31   29   30 1    
    32   29   31 ar   
    33   31   32 ar   
    34   32   33 ar   
    35   33   34 1    
    36   33   35 ar   
    37   35   36 1    
    38   35   28 ar   
    39   32   37 1    
    40   37   38 1    
    41   38   39 1    
    42   38   40 1    
    43   38   41 1    
    44   41   31 1    
@<TRIPOS>SUBSTRUCTURE
     1 ****        1 TEMP              0 ****  ****    0 ROOT 
@<TRIPOS>SET
UNITY_3DHIT     STATIC     ATOMS    <user>   **** Atoms matching 3D or FLEX Search
0
