#	Name:			7-20h
#	Creating user name:	jeff
#	Creation time:		Fri Dec 13 09:51:23 2002

#	Modifying user name:	jeff
#	Modification time:	Fri Dec 13 09:51:26 2002

@<TRIPOS>MOLECULE
7-20h
   46    48     1     0     1
SMALL
USER_CHARGES
****
From 3DB ct
@<TRIPOS>ATOM
      1 C          26.506000   22.054000   16.473000 C.ar      1 <1>         0.171000 
      2 C          25.605000   21.468000   17.403000 C.ar      1 <1>        -0.235200 
      3 C          24.159000   21.394000   17.145000 C.ar      1 <1>         0.407600 
      4 C          23.532000   22.296000   16.268000 C.ar      1 <1>        -0.323600 
      5 H          24.119000   23.060000   15.758000 H         1 <1>         0.204400 
      6 C          22.154000   22.227000   16.040000 C.ar      1 <1>         0.010100 
      7 H          21.689000   22.948000   15.369000 H         1 <1>         0.188600 
      8 C          21.394000   21.251000   16.689000 C.ar      1 <1>        -0.526100 
      9 C          22.002000   20.340000   17.553000 C.ar      1 <1>        -0.023600 
     10 H          21.421000   19.577000   18.066000 H         1 <1>         0.185400 
     11 C          23.378000   20.417000   17.780000 C.ar      1 <1>        -0.322500 
     12 H          23.842000   19.705000   18.466000 H         1 <1>         0.203500 
     13 S          19.630000   21.231000   16.480000 S.o2      1 <1>         2.203700 
     14 O          19.236000   22.553000   15.998000 O.2       1 <1>        -0.975000 
     15 O          19.030000   20.737000   17.715000 O.2       1 <1>        -0.976200 
     16 C          19.343000   20.037000   15.201000 C.3       1 <1>        -0.731500 
     17 H          18.262000   19.932000   15.086000 H         1 <1>         0.239100 
     18 H          19.770000   19.078000   15.500000 H         1 <1>         0.194600 
     19 H          19.787000   20.390000   14.268000 H         1 <1>         0.192200 
     20 C          26.108000   20.909000   18.597000 C.ar      1 <1>        -0.260500 
     21 H          25.442000   20.443000   19.317000 H         1 <1>         0.231200 
     22 C          27.472000   20.932000   18.863000 C.ar      1 <1>         0.320900 
     23 C          28.351000   21.508000   17.957000 C.ar      1 <1>         0.383900 
     24 C          27.880000   22.059000   16.770000 C.ar      1 <1>        -0.403700 
     25 H          28.595000   22.495000   16.076000 H         1 <1>         0.267300 
     26 F          29.664000   21.538000   18.225000 F         1 <1>        -0.312000 
     27 F          27.937000   20.386000   19.997000 F         1 <1>        -0.306500 
     28 C          26.047000   22.655000   15.207000 C.ar      1 <1>        -0.115500 
     29 C          26.270000   24.014000   14.933000 C.ar      1 <1>        -0.321800 
     30 H          26.804000   24.617000   15.663000 H         1 <1>         0.211300 
     31 C          25.823000   24.582000   13.734000 C.ar      1 <1>         0.227700 
     32 C          25.180000   23.787000   12.768000 C.ar      1 <1>         0.303100 
     33 C          24.965000   22.433000   13.032000 C.ar      1 <1>        -0.372800 
     34 H          24.465000   21.778000   12.321000 H         1 <1>         0.215400 
     35 C          25.388000   21.877000   14.244000 C.ar      1 <1>        -0.033500 
     36 H          25.197000   20.821000   14.428000 H         1 <1>         0.146000 
     37 O          24.799000   24.429000   11.616000 O.3       1 <1>        -0.398000 
     38 C          25.101000   25.820000   11.518000 C.3       1 <1>         0.094300 
     39 H          24.829000   26.152000   10.510000 H         1 <1>         0.071400 
     40 H          26.174000   26.003000   11.648000 H         1 <1>         0.044600 
     41 H          24.509000   26.402000   12.233000 H         1 <1>         0.040100 
     42 O          26.017000   25.907000   13.422000 O.3       1 <1>        -0.333100 
     43 C          26.676000   26.669000   14.439000 C.3       1 <1>        -0.055500 
     44 H          26.448000   27.723000   14.250000 H         1 <1>         0.108500 
     45 H          27.761000   26.535000   14.373000 H         1 <1>         0.082700 
     46 H          26.308000   26.420000   15.443000 H         1 <1>         0.078100 
@<TRIPOS>BOND
     1    1    2 ar   
     2    2    3 1    
     3    3    4 ar   
     4    4    5 1    
     5    4    6 ar   
     6    6    7 1    
     7    6    8 ar   
     8    8    9 ar   
     9    9   10 1    
    10    9   11 ar   
    11   11   12 1    
    12   11    3 ar   
    13    8   13 1    
    14   13   14 2    
    15   13   15 2    
    16   13   16 1    
    17   16   17 1    
    18   16   18 1    
    19   16   19 1    
    20    2   20 ar   
    21   20   21 1    
    22   20   22 ar   
    23   22   23 ar   
    24   23   24 ar   
    25   24   25 1    
    26   24    1 ar   
    27   23   26 1    
    28   22   27 1    
    29    1   28 1    
    30   28   29 ar   
    31   29   30 1    
    32   29   31 ar   
    33   31   32 ar   
    34   32   33 ar   
    35   33   34 1    
    36   33   35 ar   
    37   35   36 1    
    38   35   28 ar   
    39   32   37 1    
    40   37   38 1    
    41   38   39 1    
    42   38   40 1    
    43   38   41 1    
    44   31   42 1    
    45   42   43 1    
    46   43   44 1    
    47   43   45 1    
    48   43   46 1    
@<TRIPOS>SUBSTRUCTURE
     1 ****        1 TEMP              0 ****  ****    0 ROOT 
@<TRIPOS>SET
UNITY_3DHIT     STATIC     ATOMS    <user>   **** Atoms matching 3D or FLEX Search
0
