#	Name:			7-20c
#	Creating user name:	jeff
#	Creation time:		Fri Dec 13 09:51:11 2002

#	Modifying user name:	jeff
#	Modification time:	Fri Dec 13 09:51:14 2002

@<TRIPOS>MOLECULE
7-20c
   41    43     1     0     1
SMALL
USER_CHARGES
****
From 3DB ct
@<TRIPOS>ATOM
      1 C          26.503000   22.064000   16.473000 C.ar      1 <1>         0.103400 
      2 C          25.604000   21.442000   17.384000 C.ar      1 <1>        -0.193800 
      3 C          24.149000   21.378000   17.150000 C.ar      1 <1>         0.357300 
      4 C          23.517000   22.285000   16.282000 C.ar      1 <1>        -0.295700 
      5 H          24.101000   23.044000   15.763000 H         1 <1>         0.201700 
      6 C          22.136000   22.233000   16.070000 C.ar      1 <1>        -0.018700 
      7 H          21.673000   22.945000   15.390000 H         1 <1>         0.194900 
      8 C          21.371000   21.277000   16.740000 C.ar      1 <1>        -0.514600 
      9 C          21.977000   20.361000   17.602000 C.ar      1 <1>        -0.031400 
     10 H          21.392000   19.607000   18.122000 H         1 <1>         0.192300 
     11 C          23.360000   20.418000   17.807000 C.ar      1 <1>        -0.303800 
     12 H          23.821000   19.701000   18.484000 H         1 <1>         0.202900 
     13 S          19.616000   21.211000   16.464000 S.o2      1 <1>         2.202500 
     14 O          19.196000   22.494000   15.908000 O.2       1 <1>        -0.972700 
     15 O          18.988000   20.751000   17.699000 O.2       1 <1>        -0.973400 
     16 C          19.432000   19.961000   15.220000 C.3       1 <1>        -0.728900 
     17 H          18.369000   19.863000   14.992000 H         1 <1>         0.238800 
     18 H          19.817000   19.015000   15.605000 H         1 <1>         0.192100 
     19 H          19.978000   20.267000   14.325000 H         1 <1>         0.191200 
     20 C          26.116000   20.876000   18.570000 C.ar      1 <1>        -0.276500 
     21 H          25.453000   20.397000   19.287000 H         1 <1>         0.238500 
     22 C          27.476000   20.930000   18.851000 C.ar      1 <1>         0.332600 
     23 C          28.349000   21.542000   17.968000 C.ar      1 <1>         0.381200 
     24 C          27.876000   22.106000   16.789000 C.ar      1 <1>        -0.383200 
     25 H          28.587000   22.573000   16.111000 H         1 <1>         0.264200 
     26 F          29.660000   21.593000   18.246000 F         1 <1>        -0.311100 
     27 F          27.939000   20.388000   19.987000 F         1 <1>        -0.305600 
     28 C          26.057000   22.656000   15.199000 C.ar      1 <1>        -0.023300 
     29 C          26.278000   24.019000   14.926000 C.ar      1 <1>        -0.263100 
     30 H          26.775000   24.641000   15.671000 H         1 <1>         0.229200 
     31 C          25.859000   24.595000   13.717000 C.ar      1 <1>        -0.007900 
     32 C          25.198000   23.791000   12.787000 C.ar      1 <1>         0.443900 
     33 C          24.976000   22.441000   13.029000 C.ar      1 <1>        -0.380900 
     34 H          24.465000   21.834000   12.287000 H         1 <1>         0.234300 
     35 C          25.408000   21.874000   14.229000 C.ar      1 <1>        -0.090900 
     36 H          25.230000   20.814000   14.407000 H         1 <1>         0.168500 
     37 F          24.764000   24.322000   11.634000 F         1 <1>        -0.331200 
     38 C          26.059000   26.057000   13.455000 C.3       1 <1>        -0.221400 
     39 H          26.285000   26.236000   12.399000 H         1 <1>         0.094000 
     40 H          26.901000   26.450000   14.036000 H         1 <1>         0.076500 
     41 H          25.157000   26.613000   13.726000 H         1 <1>         0.088100 
@<TRIPOS>BOND
     1    1    2 ar   
     2    2    3 1    
     3    3    4 ar   
     4    4    5 1    
     5    4    6 ar   
     6    6    7 1    
     7    6    8 ar   
     8    8    9 ar   
     9    9   10 1    
    10    9   11 ar   
    11   11   12 1    
    12   11    3 ar   
    13    8   13 1    
    14   13   14 2    
    15   13   15 2    
    16   13   16 1    
    17   16   17 1    
    18   16   18 1    
    19   16   19 1    
    20    2   20 ar   
    21   20   21 1    
    22   20   22 ar   
    23   22   23 ar   
    24   23   24 ar   
    25   24   25 1    
    26   24    1 ar   
    27   23   26 1    
    28   22   27 1    
    29    1   28 1    
    30   28   29 ar   
    31   29   30 1    
    32   29   31 ar   
    33   31   32 ar   
    34   32   33 ar   
    35   33   34 1    
    36   33   35 ar   
    37   35   36 1    
    38   35   28 ar   
    39   32   37 1    
    40   31   38 1    
    41   38   39 1    
    42   38   40 1    
    43   38   41 1    
@<TRIPOS>SUBSTRUCTURE
     1 ****        1 TEMP              0 ****  ****    0 ROOT 
@<TRIPOS>SET
UNITY_3DHIT     STATIC     ATOMS    <user>   **** Atoms matching 3D or FLEX Search
0
