#	Name:			7-20g
#	Creating user name:	jeff
#	Creation time:		Fri Dec 13 09:51:21 2002

#	Modifying user name:	jeff
#	Modification time:	Fri Dec 13 09:51:23 2002

@<TRIPOS>MOLECULE
7-20g
   45    47     1     0     1
SMALL
USER_CHARGES
****
From 3DB ct
@<TRIPOS>ATOM
      1 C          26.507000   22.061000   16.470000 C.ar      1 <1>         0.168300 
      2 C          25.603000   21.444000   17.382000 C.ar      1 <1>        -0.260800 
      3 C          24.144000   21.379000   17.151000 C.ar      1 <1>         0.426500 
      4 C          23.502000   22.285000   16.287000 C.ar      1 <1>        -0.329000 
      5 H          24.079000   23.050000   15.767000 H         1 <1>         0.206800 
      6 C          22.121000   22.229000   16.078000 C.ar      1 <1>         0.006400 
      7 H          21.653000   22.937000   15.397000 H         1 <1>         0.192400 
      8 C          21.360000   21.269000   16.748000 C.ar      1 <1>        -0.536000 
      9 C          21.970000   20.361000   17.613000 C.ar      1 <1>        -0.027200 
     10 H          21.388000   19.607000   18.140000 H         1 <1>         0.189600 
     11 C          23.354000   20.420000   17.811000 C.ar      1 <1>        -0.325700 
     12 H          23.815000   19.703000   18.490000 H         1 <1>         0.204200 
     13 S          19.605000   21.202000   16.463000 S.o2      1 <1>         2.219900 
     14 O          19.192000   22.470000   15.868000 O.2       1 <1>        -0.978400 
     15 O          18.977000   20.779000   17.709000 O.2       1 <1>        -0.977100 
     16 C          19.415000   19.924000   15.249000 C.3       1 <1>        -0.736100 
     17 H          18.355000   19.851000   14.997000 H         1 <1>         0.237800 
     18 H          19.758000   18.976000   15.669000 H         1 <1>         0.192300 
     19 H          19.992000   20.186000   14.360000 H         1 <1>         0.189400 
     20 C          26.117000   20.883000   18.571000 C.ar      1 <1>        -0.250600 
     21 H          25.454000   20.412000   19.293000 H         1 <1>         0.228900 
     22 C          27.476000   20.934000   18.853000 C.ar      1 <1>         0.314800 
     23 C          28.352000   21.540000   17.969000 C.ar      1 <1>         0.381200 
     24 C          27.881000   22.098000   16.787000 C.ar      1 <1>        -0.388100 
     25 H          28.595000   22.558000   16.107000 H         1 <1>         0.259100 
     26 F          29.662000   21.591000   18.249000 F         1 <1>        -0.311100 
     27 F          27.935000   20.394000   19.992000 F         1 <1>        -0.305700 
     28 C          26.070000   22.656000   15.194000 C.ar      1 <1>        -0.101900 
     29 C          26.299000   24.013000   14.917000 C.ar      1 <1>        -0.157600 
     30 H          26.804000   24.631000   15.661000 H         1 <1>         0.191700 
     31 C          25.870000   24.599000   13.713000 C.ar      1 <1>        -0.062000 
     32 C          25.197000   23.812000   12.762000 C.ar      1 <1>         0.362400 
     33 C          24.983000   22.456000   13.022000 C.ar      1 <1>        -0.351000 
     34 H          24.475000   21.806000   12.314000 H         1 <1>         0.181600 
     35 C          25.416000   21.886000   14.225000 C.ar      1 <1>        -0.119600 
     36 H          25.228000   20.828000   14.403000 H         1 <1>         0.170700 
     37 O          24.795000   24.463000   11.625000 O.3       1 <1>        -0.354700 
     38 C          24.046000   23.710000   10.672000 C.3       1 <1>         0.004400 
     39 H          23.788000   24.381000    9.847000 H         1 <1>         0.099300 
     40 H          23.112000   23.343000   11.109000 H         1 <1>         0.060300 
     41 H          24.644000   22.889000   10.261000 H         1 <1>         0.067100 
     42 C          26.100000   26.070000   13.486000 C.3       1 <1>        -0.215300 
     43 H          26.577000   26.240000   12.515000 H         1 <1>         0.077800 
     44 H          26.758000   26.498000   14.251000 H         1 <1>         0.078800 
     45 H          25.146000   26.607000   13.523000 H         1 <1>         0.075600 
@<TRIPOS>BOND
     1    1    2 ar   
     2    2    3 1    
     3    3    4 ar   
     4    4    5 1    
     5    4    6 ar   
     6    6    7 1    
     7    6    8 ar   
     8    8    9 ar   
     9    9   10 1    
    10    9   11 ar   
    11   11   12 1    
    12   11    3 ar   
    13    8   13 1    
    14   13   14 2    
    15   13   15 2    
    16   13   16 1    
    17   16   17 1    
    18   16   18 1    
    19   16   19 1    
    20    2   20 ar   
    21   20   21 1    
    22   20   22 ar   
    23   22   23 ar   
    24   23   24 ar   
    25   24   25 1    
    26   24    1 ar   
    27   23   26 1    
    28   22   27 1    
    29    1   28 1    
    30   28   29 ar   
    31   29   30 1    
    32   29   31 ar   
    33   31   32 ar   
    34   32   33 ar   
    35   33   34 1    
    36   33   35 ar   
    37   35   36 1    
    38   35   28 ar   
    39   32   37 1    
    40   37   38 1    
    41   38   39 1    
    42   38   40 1    
    43   38   41 1    
    44   31   42 1    
    45   42   43 1    
    46   42   44 1    
    47   42   45 1    
@<TRIPOS>SUBSTRUCTURE
     1 ****        1 TEMP              0 ****  ****    0 ROOT 
@<TRIPOS>SET
UNITY_3DHIT     STATIC     ATOMS    <user>   **** Atoms matching 3D or FLEX Search
0
