#	Name:			7-20k
#	Creating user name:	jeff
#	Creation time:		Fri Dec 13 09:51:30 2002

#	Modifying user name:	jeff
#	Modification time:	Fri Dec 13 09:51:33 2002

@<TRIPOS>MOLECULE
7-20k
   41    43     1     0     1
SMALL
USER_CHARGES
****
From 3DB ct
@<TRIPOS>ATOM
      1 C          26.507000   22.040000   16.463000 C.ar      1 <1>         0.030900 
      2 C          25.609000   21.459000   17.403000 C.ar      1 <1>        -0.139500 
      3 C          24.155000   21.399000   17.173000 C.ar      1 <1>         0.298400 
      4 C          23.534000   22.295000   16.285000 C.ar      1 <1>        -0.251500 
      5 H          24.127000   23.043000   15.759000 H         1 <1>         0.188900 
      6 C          22.157000   22.235000   16.051000 C.ar      1 <1>        -0.029900 
      7 H          21.703000   22.936000   15.354000 H         1 <1>         0.194200 
      8 C          21.389000   21.272000   16.707000 C.ar      1 <1>        -0.507400 
      9 C          21.981000   20.386000   17.609000 C.ar      1 <1>        -0.047000 
     10 H          21.388000   19.639000   18.133000 H         1 <1>         0.191600 
     11 C          23.358000   20.452000   17.838000 C.ar      1 <1>        -0.274800 
     12 H          23.811000   19.752000   18.539000 H         1 <1>         0.196800 
     13 S          19.637000   21.191000   16.417000 S.o2      1 <1>         2.204200 
     14 O          19.211000   22.476000   15.870000 O.2       1 <1>        -0.975500 
     15 O          19.001000   20.714000   17.641000 O.2       1 <1>        -0.975800 
     16 C          19.477000   19.950000   15.161000 C.3       1 <1>        -0.716100 
     17 H          18.416000   19.839000   14.926000 H         1 <1>         0.233200 
     18 H          19.873000   19.006000   15.540000 H         1 <1>         0.189300 
     19 H          20.023000   20.271000   14.272000 H         1 <1>         0.184400 
     20 C          26.126000   20.913000   18.595000 C.ar      1 <1>        -0.287300 
     21 H          25.465000   20.460000   19.330000 H         1 <1>         0.238400 
     22 C          27.493000   20.935000   18.847000 C.ar      1 <1>         0.325400 
     23 C          28.367000   21.494000   17.929000 C.ar      1 <1>         0.380100 
     24 C          27.887000   22.043000   16.746000 C.ar      1 <1>        -0.358000 
     25 H          28.595000   22.483000   16.047000 H         1 <1>         0.251200 
     26 F          29.684000   21.512000   18.180000 F         1 <1>        -0.312800 
     27 F          27.962000   20.407000   19.987000 F         1 <1>        -0.306000 
     28 C          26.046000   22.652000   15.204000 C.ar      1 <1>         0.084300 
     29 C          26.267000   24.012000   14.940000 C.ar      1 <1>        -0.203500 
     30 H          26.785000   24.634000   15.669000 H         1 <1>         0.184000 
     31 C          25.823000   24.593000   13.748000 C.ar      1 <1>        -0.271300 
     32 H          26.000000   25.654000   13.578000 H         1 <1>         0.195500 
     33 C          25.160000   23.822000   12.788000 C.ar      1 <1>         0.216400 
     34 C          24.929000   22.467000   13.046000 C.ar      1 <1>        -0.286500 
     35 H          24.399000   21.850000   12.322000 H         1 <1>         0.193700 
     36 C          25.375000   21.887000   14.238000 C.ar      1 <1>        -0.168700 
     37 H          25.182000   20.829000   14.414000 H         1 <1>         0.161700 
     38 C          24.649000   24.452000   11.525000 C.3       1 <1>        -0.294900 
     39 H          24.649000   23.732000   10.701000 H         1 <1>         0.084500 
     40 H          25.285000   25.292000   11.223000 H         1 <1>         0.087100 
     41 H          23.629000   24.817000   11.677000 H         1 <1>         0.092400 
@<TRIPOS>BOND
     1    1    2 ar   
     2    2    3 1    
     3    3    4 ar   
     4    4    5 1    
     5    4    6 ar   
     6    6    7 1    
     7    6    8 ar   
     8    8    9 ar   
     9    9   10 1    
    10    9   11 ar   
    11   11   12 1    
    12   11    3 ar   
    13    8   13 1    
    14   13   14 2    
    15   13   15 2    
    16   13   16 1    
    17   16   17 1    
    18   16   18 1    
    19   16   19 1    
    20    2   20 ar   
    21   20   21 1    
    22   20   22 ar   
    23   22   23 ar   
    24   23   24 ar   
    25   24   25 1    
    26   24    1 ar   
    27   23   26 1    
    28   22   27 1    
    29    1   28 1    
    30   28   29 ar   
    31   29   30 1    
    32   29   31 ar   
    33   31   32 1    
    34   31   33 ar   
    35   33   34 ar   
    36   34   35 1    
    37   34   36 ar   
    38   36   37 1    
    39   36   28 ar   
    40   33   38 1    
    41   38   39 1    
    42   38   40 1    
    43   38   41 1    
@<TRIPOS>SUBSTRUCTURE
     1 ****        1 TEMP              0 ****  ****    0 ROOT 
@<TRIPOS>SET
UNITY_3DHIT     STATIC     ATOMS    <user>   **** Atoms matching 3D or FLEX Search
0
