#	Name:			7-20f
#	Creating user name:	jeff
#	Creation time:		Fri Dec 13 09:51:18 2002

#	Modifying user name:	jeff
#	Modification time:	Fri Dec 13 09:51:21 2002

@<TRIPOS>MOLECULE
7-20f
   42    44     1     0     1
SMALL
USER_CHARGES
****
From 3DB ct
@<TRIPOS>ATOM
      1 C          26.507000   22.057000   16.473000 C.ar      1 <1>        -0.125600 
      2 C          25.614000   21.443000   17.395000 C.ar      1 <1>         0.023200 
      3 C          24.159000   21.397000   17.171000 C.ar      1 <1>         0.232900 
      4 C          23.541000   22.288000   16.276000 C.ar      1 <1>        -0.255300 
      5 H          24.134000   23.034000   15.749000 H         1 <1>         0.177700 
      6 C          22.164000   22.232000   16.045000 C.ar      1 <1>        -0.012200 
      7 H          21.709000   22.931000   15.346000 H         1 <1>         0.192400 
      8 C          21.392000   21.276000   16.709000 C.ar      1 <1>        -0.485400 
      9 C          21.981000   20.395000   17.617000 C.ar      1 <1>        -0.075100 
     10 H          21.387000   19.653000   18.146000 H         1 <1>         0.208300 
     11 C          23.359000   20.459000   17.845000 C.ar      1 <1>        -0.262700 
     12 H          23.810000   19.758000   18.547000 H         1 <1>         0.200400 
     13 S          19.640000   21.209000   16.410000 S.o2      1 <1>         2.184300 
     14 O          19.236000   22.495000   15.851000 O.2       1 <1>        -0.969100 
     15 O          18.989000   20.744000   17.630000 O.2       1 <1>        -0.969400 
     16 C          19.479000   19.957000   15.163000 C.3       1 <1>        -0.707400 
     17 H          18.418000   19.853000   14.924000 H         1 <1>         0.244800 
     18 H          19.867000   19.015000   15.553000 H         1 <1>         0.181700 
     19 H          20.031000   20.267000   14.274000 H         1 <1>         0.175700 
     20 C          26.134000   20.867000   18.572000 C.ar      1 <1>        -0.375400 
     21 H          25.474000   20.391000   19.294000 H         1 <1>         0.259300 
     22 C          27.498000   20.905000   18.833000 C.ar      1 <1>         0.384100 
     23 C          28.366000   21.512000   17.940000 C.ar      1 <1>         0.328500 
     24 C          27.884000   22.085000   16.769000 C.ar      1 <1>        -0.261200 
     25 H          28.592000   22.546000   16.083000 H         1 <1>         0.224900 
     26 F          29.681000   21.545000   18.199000 F         1 <1>        -0.301200 
     27 F          27.972000   20.353000   19.959000 F         1 <1>        -0.305600 
     28 C          26.044000   22.653000   15.206000 C.ar      1 <1>        -0.068700 
     29 C          26.260000   24.013000   14.932000 C.ar      1 <1>         0.303100 
     30 H          26.768000   24.636000   15.667000 H         1 <1>         0.103500 
     31 C          25.809000   24.582000   13.738000 C.ar      1 <1>        -0.984500 
     32 C          25.155000   23.796000   12.782000 C.ar      1 <1>         1.272900 
     33 C          24.912000   22.446000   13.059000 C.ar      1 <1>        -0.938400 
     34 C          25.366000   21.878000   14.252000 C.ar      1 <1>         0.297700 
     35 H          25.181000   20.822000   14.448000 H         1 <1>         0.079200 
     36 Cl         24.035000   21.442000   11.959000 Cl        1 <1>         0.206400 
     37 O          24.686000   24.358000   11.619000 O.3       1 <1>        -0.705700 
     38 C          25.679000   24.268000   10.591000 C.3       1 <1>         0.271000 
     39 H          26.031000   23.240000   10.453000 H         1 <1>        -0.027300 
     40 H          26.525000   24.929000   10.804000 H         1 <1>        -0.018200 
     41 H          25.219000   24.596000    9.654000 H         1 <1>         0.079100 
     42 Cl         26.066000   26.274000   13.492000 Cl        1 <1>         0.217300 
@<TRIPOS>BOND
     1    1    2 ar   
     2    2    3 1    
     3    3    4 ar   
     4    4    5 1    
     5    4    6 ar   
     6    6    7 1    
     7    6    8 ar   
     8    8    9 ar   
     9    9   10 1    
    10    9   11 ar   
    11   11   12 1    
    12   11    3 ar   
    13    8   13 1    
    14   13   14 2    
    15   13   15 2    
    16   13   16 1    
    17   16   17 1    
    18   16   18 1    
    19   16   19 1    
    20    2   20 ar   
    21   20   21 1    
    22   20   22 ar   
    23   22   23 ar   
    24   23   24 ar   
    25   24   25 1    
    26   24    1 ar   
    27   23   26 1    
    28   22   27 1    
    29    1   28 1    
    30   28   29 ar   
    31   29   30 1    
    32   29   31 ar   
    33   31   32 ar   
    34   32   33 ar   
    35   33   34 ar   
    36   34   35 1    
    37   34   28 ar   
    38   33   36 1    
    39   32   37 1    
    40   37   38 1    
    41   38   39 1    
    42   38   40 1    
    43   38   41 1    
    44   31   42 1    
@<TRIPOS>SUBSTRUCTURE
     1 ****        1 TEMP              0 ****  ****    0 ROOT 
@<TRIPOS>SET
UNITY_3DHIT     STATIC     ATOMS    <user>   **** Atoms matching 3D or FLEX Search
0
