#	Name:			7-20q
#	Creating user name:	jeff
#	Creation time:		Fri Dec 13 09:52:25 2002

#	Modifying user name:	jeff
#	Modification time:	Fri Dec 13 09:52:28 2002

@<TRIPOS>MOLECULE
7-20q
   40    42     1     0     1
SMALL
USER_CHARGES
****
From 3DB ct
@<TRIPOS>ATOM
      1 C          26.500000   22.069000   16.479000 C.ar      1 <1>        -0.033700 
      2 C          25.605000   21.434000   17.383000 C.ar      1 <1>        -0.036000 
      3 C          24.152000   21.369000   17.147000 C.ar      1 <1>         0.245300 
      4 C          23.523000   22.282000   16.283000 C.ar      1 <1>        -0.244900 
      5 H          24.108000   23.045000   15.771000 H         1 <1>         0.182900 
      6 C          22.142000   22.235000   16.072000 C.ar      1 <1>        -0.027000 
      7 H          21.678000   22.957000   15.404000 H         1 <1>         0.192300 
      8 C          21.376000   21.265000   16.723000 C.ar      1 <1>        -0.507100 
      9 C          21.979000   20.352000   17.590000 C.ar      1 <1>        -0.027900 
     10 H          21.393000   19.597000   18.108000 H         1 <1>         0.189700 
     11 C          23.361000   20.407000   17.799000 C.ar      1 <1>        -0.273500 
     12 H          23.821000   19.688000   18.476000 H         1 <1>         0.196900 
     13 S          19.616000   21.231000   16.471000 S.o2      1 <1>         2.202000 
     14 O          19.217000   22.543000   15.970000 O.2       1 <1>        -0.975500 
     15 O          18.990000   20.734000   17.693000 O.2       1 <1>        -0.974800 
     16 C          19.392000   20.026000   15.190000 C.3       1 <1>        -0.725700 
     17 H          18.321000   19.937000   14.992000 H         1 <1>         0.235800 
     18 H          19.788000   19.068000   15.530000 H         1 <1>         0.193800 
     19 H          19.908000   20.362000   14.289000 H         1 <1>         0.194400 
     20 C          26.118000   20.863000   18.566000 C.ar      1 <1>        -0.334900 
     21 H          25.456000   20.374000   19.277000 H         1 <1>         0.248500 
     22 C          27.476000   20.930000   18.853000 C.ar      1 <1>         0.356000 
     23 C          28.346000   21.556000   17.977000 C.ar      1 <1>         0.353600 
     24 C          27.872000   22.122000   16.800000 C.ar      1 <1>        -0.307200 
     25 H          28.581000   22.601000   16.128000 H         1 <1>         0.241300 
     26 F          29.655000   21.620000   18.261000 F         1 <1>        -0.307600 
     27 F          27.939000   20.389000   19.989000 F         1 <1>        -0.307700 
     28 C          26.054000   22.665000   15.211000 C.ar      1 <1>        -0.229500 
     29 C          26.257000   24.018000   14.926000 C.ar      1 <1>         0.097800 
     30 H          26.739000   24.670000   15.653000 H         1 <1>         0.157500 
     31 C          25.837000   24.550000   13.708000 C.ar      1 <1>        -0.608600 
     32 H          25.991000   25.603000   13.490000 H         1 <1>         0.248500 
     33 C          25.223000   23.712000   12.783000 C.ar      1 <1>         0.674800 
     34 N          25.013000   22.395000   13.022000 N.ar      1 <1>        -0.717600 
     35 C          25.429000   21.908000   14.221000 C.ar      1 <1>         0.350900 
     36 H          25.246000   20.845000   14.367000 H         1 <1>         0.116800 
     37 C          24.765000   24.260000   11.464000 C.3       1 <1>        -0.337800 
     38 H          24.346000   23.465000   10.838000 H         1 <1>         0.113700 
     39 H          23.990000   25.017000   11.620000 H         1 <1>         0.088600 
     40 H          25.606000   24.709000   10.928000 H         1 <1>         0.095800 
@<TRIPOS>BOND
     1    1    2 ar   
     2    2    3 1    
     3    3    4 ar   
     4    4    5 1    
     5    4    6 ar   
     6    6    7 1    
     7    6    8 ar   
     8    8    9 ar   
     9    9   10 1    
    10    9   11 ar   
    11   11   12 1    
    12   11    3 ar   
    13    8   13 1    
    14   13   14 2    
    15   13   15 2    
    16   13   16 1    
    17   16   17 1    
    18   16   18 1    
    19   16   19 1    
    20    2   20 ar   
    21   20   21 1    
    22   20   22 ar   
    23   22   23 ar   
    24   23   24 ar   
    25   24   25 1    
    26   24    1 ar   
    27   23   26 1    
    28   22   27 1    
    29    1   28 1    
    30   28   29 ar   
    31   29   30 1    
    32   29   31 ar   
    33   31   32 1    
    34   31   33 ar   
    35   33   34 ar   
    36   34   35 ar   
    37   35   36 1    
    38   35   28 ar   
    39   33   37 1    
    40   37   38 1    
    41   37   39 1    
    42   37   40 1    
@<TRIPOS>SUBSTRUCTURE
     1 ****        1 TEMP              0 ****  ****    0 ROOT 
@<TRIPOS>SET
UNITY_3DHIT     STATIC     ATOMS    <user>   **** Atoms matching 3D or FLEX Search
0
