#	Name:			7-20p
#	Creating user name:	jeff
#	Creation time:		Fri Dec 13 09:52:30 2002

#	Modifying user name:	jeff
#	Modification time:	Fri Dec 13 09:52:32 2002

@<TRIPOS>MOLECULE
7-20p
   40    42     1     0     1
SMALL
USER_CHARGES
****
From 3DB ct
@<TRIPOS>ATOM
      1 C          26.500000   22.054000   16.451000 C.ar      1 <1>        -0.141400 
      2 C          25.600000   21.467000   17.387000 C.ar      1 <1>        -0.091800 
      3 C          24.144000   21.399000   17.161000 C.ar      1 <1>         0.322800 
      4 C          23.511000   22.296000   16.283000 C.ar      1 <1>        -0.296800 
      5 H          24.094000   23.052000   15.756000 H         1 <1>         0.185300 
      6 C          22.132000   22.234000   16.061000 C.ar      1 <1>         0.014100 
      7 H          21.669000   22.939000   15.373000 H         1 <1>         0.189500 
      8 C          21.372000   21.265000   16.718000 C.ar      1 <1>        -0.542700 
      9 C          21.974000   20.375000   17.608000 C.ar      1 <1>        -0.030400 
     10 H          21.389000   19.624000   18.134000 H         1 <1>         0.180600 
     11 C          23.354000   20.444000   17.825000 C.ar      1 <1>        -0.265700 
     12 H          23.812000   19.742000   18.522000 H         1 <1>         0.200800 
     13 S          19.615000   21.192000   16.448000 S.o2      1 <1>         2.215100 
     14 O          19.189000   22.484000   15.920000 O.2       1 <1>        -0.981100 
     15 O          18.991000   20.703000   17.674000 O.2       1 <1>        -0.976600 
     16 C          19.436000   19.963000   15.182000 C.3       1 <1>        -0.731100 
     17 H          18.372000   19.858000   14.960000 H         1 <1>         0.236300 
     18 H          19.834000   19.015000   15.547000 H         1 <1>         0.196500 
     19 H          19.971000   20.292000   14.289000 H         1 <1>         0.186500 
     20 C          26.118000   20.900000   18.571000 C.ar      1 <1>        -0.286100 
     21 H          25.456000   20.442000   19.302000 H         1 <1>         0.234500 
     22 C          27.485000   20.900000   18.820000 C.ar      1 <1>         0.347200 
     23 C          28.362000   21.456000   17.904000 C.ar      1 <1>         0.357600 
     24 C          27.883000   22.026000   16.731000 C.ar      1 <1>        -0.294100 
     25 H          28.595000   22.460000   16.032000 H         1 <1>         0.231000 
     26 F          29.681000   21.449000   18.146000 F         1 <1>        -0.311700 
     27 F          27.952000   20.351000   19.950000 F         1 <1>        -0.308700 
     28 C          26.055000   22.697000   15.200000 C.ar      1 <1>         0.727100 
     29 C          26.258000   24.050000   14.941000 C.ar      1 <1>        -0.600800 
     30 H          26.759000   24.690000   15.662000 H         1 <1>         0.247400 
     31 C          25.816000   24.583000   13.731000 C.ar      1 <1>         0.043200 
     32 H          25.974000   25.639000   13.521000 H         1 <1>         0.170500 
     33 C          25.180000   23.760000   12.804000 C.ar      1 <1>        -0.125900 
     34 C          25.044000   22.416000   13.130000 C.ar      1 <1>         0.232300 
     35 H          24.578000   21.718000   12.437000 H         1 <1>         0.153000 
     36 N          25.465000   21.870000   14.298000 N.ar      1 <1>        -0.692500 
     37 C          24.720000   24.284000   11.480000 C.3       1 <1>        -0.296100 
     38 H          23.807000   23.775000   11.157000 H         1 <1>         0.094900 
     39 H          25.498000   24.132000   10.725000 H         1 <1>         0.108200 
     40 H          24.492000   25.354000   11.540000 H         1 <1>         0.099200 
@<TRIPOS>BOND
     1    1    2 ar   
     2    2    3 1    
     3    3    4 ar   
     4    4    5 1    
     5    4    6 ar   
     6    6    7 1    
     7    6    8 ar   
     8    8    9 ar   
     9    9   10 1    
    10    9   11 ar   
    11   11   12 1    
    12   11    3 ar   
    13    8   13 1    
    14   13   14 2    
    15   13   15 2    
    16   13   16 1    
    17   16   17 1    
    18   16   18 1    
    19   16   19 1    
    20    2   20 ar   
    21   20   21 1    
    22   20   22 ar   
    23   22   23 ar   
    24   23   24 ar   
    25   24   25 1    
    26   24    1 ar   
    27   23   26 1    
    28   22   27 1    
    29    1   28 1    
    30   28   29 ar   
    31   29   30 1    
    32   29   31 ar   
    33   31   32 1    
    34   31   33 ar   
    35   33   34 ar   
    36   34   35 1    
    37   34   36 ar   
    38   36   28 ar   
    39   33   37 1    
    40   37   38 1    
    41   37   39 1    
    42   37   40 1    
@<TRIPOS>SUBSTRUCTURE
     1 ****        1 TEMP              0 ****  ****    0 ROOT 
@<TRIPOS>SET
UNITY_3DHIT     STATIC     ATOMS    <user>   **** Atoms matching 3D or FLEX Search
0
