#	Name:			7-20i
#	Creating user name:	jeff
#	Creation time:		Fri Dec 13 09:51:26 2002

#	Modifying user name:	jeff
#	Modification time:	Fri Dec 13 09:51:28 2002

@<TRIPOS>MOLECULE
7-20i
   44    47     1     0     1
SMALL
USER_CHARGES
****
From 3DB ct
@<TRIPOS>ATOM
      1 C          26.504000   22.061000   16.473000 C.ar      1 <1>         0.114300 
      2 C          25.605000   21.443000   17.388000 C.ar      1 <1>        -0.199100 
      3 C          24.150000   21.391000   17.157000 C.ar      1 <1>         0.361600 
      4 C          23.527000   22.288000   16.273000 C.ar      1 <1>        -0.299100 
      5 H          24.119000   23.038000   15.750000 H         1 <1>         0.212400 
      6 C          22.146000   22.241000   16.045000 C.ar      1 <1>        -0.019600 
      7 H          21.711000   22.955000   15.353000 H         1 <1>         0.194100 
      8 C          21.371000   21.294000   16.714000 C.ar      1 <1>        -0.512600 
      9 C          21.972000   20.391000   17.599000 C.ar      1 <1>        -0.030200 
     10 H          21.375000   19.645000   18.120000 H         1 <1>         0.189700 
     11 C          23.351000   20.445000   17.821000 C.ar      1 <1>        -0.308500 
     12 H          23.803000   19.735000   18.513000 H         1 <1>         0.203500 
     13 S          19.612000   21.182000   16.476000 S.o2      1 <1>         2.201100 
     14 O          19.167000   22.499000   16.032000 O.2       1 <1>        -0.973200 
     15 O          19.055000   20.620000   17.704000 O.2       1 <1>        -0.975200 
     16 C          19.319000   20.019000   15.174000 C.3       1 <1>        -0.727600 
     17 H          18.239000   19.894000   15.070000 H         1 <1>         0.237100 
     18 H          19.772000   19.061000   15.435000 H         1 <1>         0.192900 
     19 H          19.726000   20.408000   14.238000 H         1 <1>         0.188300 
     20 C          26.120000   20.869000   18.569000 C.ar      1 <1>        -0.280800 
     21 H          25.458000   20.393000   19.288000 H         1 <1>         0.239200 
     22 C          27.482000   20.913000   18.842000 C.ar      1 <1>         0.330100 
     23 C          28.354000   21.524000   17.957000 C.ar      1 <1>         0.382400 
     24 C          27.880000   22.094000   16.782000 C.ar      1 <1>        -0.388000 
     25 H          28.591000   22.560000   16.104000 H         1 <1>         0.267100 
     26 F          29.667000   21.566000   18.229000 F         1 <1>        -0.313000 
     27 F          27.947000   20.361000   19.972000 F         1 <1>        -0.306800 
     28 C          26.054000   22.659000   15.203000 C.ar      1 <1>         0.041500 
     29 C          26.275000   24.020000   14.934000 C.ar      1 <1>        -0.416300 
     30 H          26.780000   24.646000   15.669000 H         1 <1>         0.259700 
     31 C          25.854000   24.586000   13.729000 C.ar      1 <1>         0.296000 
     32 C          25.183000   23.805000   12.784000 C.ar      1 <1>         0.237700 
     33 C          24.973000   22.450000   13.027000 C.ar      1 <1>        -0.311900 
     34 H          24.462000   21.833000   12.292000 H         1 <1>         0.222700 
     35 C          25.408000   21.881000   14.227000 C.ar      1 <1>        -0.146300 
     36 H          25.233000   20.819000   14.399000 H         1 <1>         0.166800 
     37 O          24.713000   24.301000   11.597000 O.3       1 <1>        -0.416100 
     38 C          24.679000   25.737000   11.598000 C.3       1 <1>         0.076400 
     39 H          23.803000   26.061000   12.174000 H         1 <1>         0.079600 
     40 H          24.549000   26.066000   10.562000 H         1 <1>         0.096100 
     41 C          25.965000   26.307000   12.173000 C.3       1 <1>         0.088000 
     42 H          26.842000   25.966000   11.611000 H         1 <1>         0.079200 
     43 H          25.943000   27.401000   12.143000 H         1 <1>         0.097000 
     44 O          26.126000   25.918000   13.547000 O.3       1 <1>        -0.430000 
@<TRIPOS>BOND
     1    1    2 ar   
     2    2    3 1    
     3    3    4 ar   
     4    4    5 1    
     5    4    6 ar   
     6    6    7 1    
     7    6    8 ar   
     8    8    9 ar   
     9    9   10 1    
    10    9   11 ar   
    11   11   12 1    
    12   11    3 ar   
    13    8   13 1    
    14   13   14 2    
    15   13   15 2    
    16   13   16 1    
    17   16   17 1    
    18   16   18 1    
    19   16   19 1    
    20    2   20 ar   
    21   20   21 1    
    22   20   22 ar   
    23   22   23 ar   
    24   23   24 ar   
    25   24   25 1    
    26   24    1 ar   
    27   23   26 1    
    28   22   27 1    
    29    1   28 1    
    30   28   29 ar   
    31   29   30 1    
    32   29   31 ar   
    33   31   32 ar   
    34   32   33 ar   
    35   33   34 1    
    36   33   35 ar   
    37   35   36 1    
    38   35   28 ar   
    39   32   37 1    
    40   37   38 1    
    41   38   39 1    
    42   38   40 1    
    43   38   41 1    
    44   41   42 1    
    45   41   43 1    
    46   41   44 1    
    47   44   31 1    
@<TRIPOS>SUBSTRUCTURE
     1 ****        1 TEMP              0 ****  ****    0 ROOT 
@<TRIPOS>SET
UNITY_3DHIT     STATIC     ATOMS    <user>   **** Atoms matching 3D or FLEX Search
0
