#	Name:			7-20o
#	Creating user name:	jeff
#	Creation time:		Fri Dec 13 09:51:40 2002

#	Modifying user name:	jeff
#	Modification time:	Fri Dec 13 09:51:42 2002

@<TRIPOS>MOLECULE
7-20o
   46    48     1     0     1
SMALL
USER_CHARGES
****
From 3DB ct
@<TRIPOS>ATOM
      1 C          26.513000   22.032000   16.461000 C.ar      1 <1>         0.031500 
      2 C          25.609000   21.470000   17.406000 C.ar      1 <1>        -0.128300 
      3 C          24.156000   21.407000   17.167000 C.ar      1 <1>         0.295700 
      4 C          23.533000   22.301000   16.279000 C.ar      1 <1>        -0.241200 
      5 H          24.123000   23.051000   15.754000 H         1 <1>         0.183400 
      6 C          22.157000   22.236000   16.045000 C.ar      1 <1>        -0.026700 
      7 H          21.700000   22.936000   15.349000 H         1 <1>         0.191800 
      8 C          21.391000   21.270000   16.701000 C.ar      1 <1>        -0.515100 
      9 C          21.987000   20.383000   17.600000 C.ar      1 <1>        -0.027700 
     10 H          21.395000   19.635000   18.124000 H         1 <1>         0.188100 
     11 C          23.364000   20.452000   17.827000 C.ar      1 <1>        -0.299500 
     12 H          23.819000   19.752000   18.527000 H         1 <1>         0.202000 
     13 S          19.638000   21.182000   16.424000 S.o2      1 <1>         2.211900 
     14 O          19.199000   22.465000   15.881000 O.2       1 <1>        -0.973700 
     15 O          19.017000   20.699000   17.653000 O.2       1 <1>        -0.973500 
     16 C          19.475000   19.945000   15.165000 C.3       1 <1>        -0.764400 
     17 H          18.413000   19.839000   14.929000 H         1 <1>         0.243700 
     18 H          19.866000   18.997000   15.541000 H         1 <1>         0.202600 
     19 H          20.023000   20.265000   14.277000 H         1 <1>         0.206900 
     20 C          26.116000   20.933000   18.606000 C.ar      1 <1>        -0.301800 
     21 H          25.447000   20.496000   19.344000 H         1 <1>         0.245600 
     22 C          27.482000   20.939000   18.860000 C.ar      1 <1>         0.342000 
     23 C          28.363000   21.475000   17.934000 C.ar      1 <1>         0.359700 
     24 C          27.893000   22.017000   16.744000 C.ar      1 <1>        -0.322400 
     25 H          28.608000   22.437000   16.041000 H         1 <1>         0.242300 
     26 F          29.680000   21.475000   18.186000 F         1 <1>        -0.307300 
     27 F          27.944000   20.417000   20.005000 F         1 <1>        -0.306400 
     28 C          26.052000   22.644000   15.201000 C.ar      1 <1>        -0.068500 
     29 C          26.291000   23.996000   14.929000 C.ar      1 <1>         0.163400 
     30 H          26.856000   24.593000   15.643000 H         1 <1>         0.108100 
     31 C          25.821000   24.596000   13.749000 C.ar      1 <1>        -0.791500 
     32 C          25.086000   23.865000   12.787000 C.ar      1 <1>         0.981000 
     33 C          24.895000   22.498000   13.063000 C.ar      1 <1>        -0.476300 
     34 H          24.338000   21.866000   12.373000 H         1 <1>         0.217200 
     35 C          25.363000   21.898000   14.242000 C.ar      1 <1>        -0.055600 
     36 H          25.161000   20.840000   14.408000 H         1 <1>         0.168200 
     37 N          24.556000   24.417000   11.623000 N.pl3     1 <1>        -0.798100 
     38 C          25.406000   24.696000   10.467000 C.3       1 <1>        -0.003500 
     39 H          24.926000   25.430000    9.812000 H         1 <1>         0.054800 
     40 H          25.580000   23.786000    9.884000 H         1 <1>         0.098300 
     41 H          26.369000   25.119000   10.773000 H         1 <1>         0.057200 
     42 C          23.113000   24.374000   11.387000 C.3       1 <1>         0.116400 
     43 H          22.904000   24.108000   10.344000 H         1 <1>         0.088200 
     44 H          22.668000   25.356000   11.571000 H         1 <1>         0.010000 
     45 H          22.612000   23.623000   12.008000 H         1 <1>         0.011700 
     46 Cl         26.275000   26.256000   13.516000 Cl        1 <1>         0.159700 
@<TRIPOS>BOND
     1    1    2 ar   
     2    2    3 1    
     3    3    4 ar   
     4    4    5 1    
     5    4    6 ar   
     6    6    7 1    
     7    6    8 ar   
     8    8    9 ar   
     9    9   10 1    
    10    9   11 ar   
    11   11   12 1    
    12   11    3 ar   
    13    8   13 1    
    14   13   14 2    
    15   13   15 2    
    16   13   16 1    
    17   16   17 1    
    18   16   18 1    
    19   16   19 1    
    20    2   20 ar   
    21   20   21 1    
    22   20   22 ar   
    23   22   23 ar   
    24   23   24 ar   
    25   24   25 1    
    26   24    1 ar   
    27   23   26 1    
    28   22   27 1    
    29    1   28 1    
    30   28   29 ar   
    31   29   30 1    
    32   29   31 ar   
    33   31   32 ar   
    34   32   33 ar   
    35   33   34 1    
    36   33   35 ar   
    37   35   36 1    
    38   35   28 ar   
    39   32   37 1    
    40   37   38 1    
    41   38   39 1    
    42   38   40 1    
    43   38   41 1    
    44   37   42 1    
    45   42   43 1    
    46   42   44 1    
    47   42   45 1    
    48   31   46 1    
@<TRIPOS>SUBSTRUCTURE
     1 ****        1 TEMP              0 ****  ****    0 ROOT 
@<TRIPOS>SET
UNITY_3DHIT     STATIC     ATOMS    <user>   **** Atoms matching 3D or FLEX Search
0
