#	Name:			7-21h
#	Creating user name:	jeff
#	Creation time:		Fri Dec 13 09:51:58 2002

#	Modifying user name:	jeff
#	Modification time:	Fri Dec 13 09:52:00 2002

@<TRIPOS>MOLECULE
7-21h
   45    47     1     0     1
SMALL
USER_CHARGES
****
From 3DB ct
@<TRIPOS>ATOM
      1 C          26.507000   22.058000   16.473000 C.ar      1 <1>         0.149400 
      2 C          25.613000   21.445000   17.394000 C.ar      1 <1>        -0.208700 
      3 C          24.160000   21.390000   17.160000 C.ar      1 <1>         0.416000 
      4 C          23.539000   22.290000   16.278000 C.ar      1 <1>        -0.350500 
      5 H          24.130000   23.044000   15.758000 H         1 <1>         0.210200 
      6 C          22.162000   22.234000   16.050000 C.ar      1 <1>         0.075000 
      7 H          21.700000   22.938000   15.360000 H         1 <1>         0.177400 
      8 C          21.391000   21.272000   16.708000 C.ar      1 <1>        -0.591200 
      9 C          21.986000   20.376000   17.597000 C.ar      1 <1>        -0.006600 
     10 H          21.394000   19.627000   18.119000 H         1 <1>         0.198500 
     11 C          23.365000   20.438000   17.821000 C.ar      1 <1>        -0.310200 
     12 H          23.820000   19.730000   18.512000 H         1 <1>         0.200900 
     13 S          19.644000   21.225000   16.422000 S.o2      1 <1>         2.451100 
     14 O          19.230000   22.492000   15.847000 O.2       1 <1>        -0.997000 
     15 O          18.973000   20.690000   17.594000 O.2       1 <1>        -0.996300 
     16 N          19.510000   20.062000   15.223000 N.pl3     1 <1>        -1.293100 
     17 H          19.117000   20.459000   14.366000 H         1 <1>         0.480700 
     18 H          18.964000   19.260000   15.548000 H         1 <1>         0.479300 
     19 C          26.129000   20.878000   18.576000 C.ar      1 <1>        -0.282500 
     20 H          25.468000   20.405000   19.299000 H         1 <1>         0.233600 
     21 C          27.493000   20.921000   18.841000 C.ar      1 <1>         0.329700 
     22 C          28.363000   21.523000   17.946000 C.ar      1 <1>         0.379100 
     23 C          27.884000   22.089000   16.771000 C.ar      1 <1>        -0.391300 
     24 H          28.590000   22.549000   16.083000 H         1 <1>         0.265700 
     25 F          29.677000   21.560000   18.210000 F         1 <1>        -0.312900 
     26 F          27.964000   20.377000   19.972000 F         1 <1>        -0.307400 
     27 C          26.045000   22.654000   15.210000 C.ar      1 <1>        -0.123800 
     28 C          26.270000   24.008000   14.931000 C.ar      1 <1>        -0.321300 
     29 H          26.803000   24.630000   15.648000 H         1 <1>         0.212900 
     30 C          25.803000   24.569000   13.739000 C.ar      1 <1>         0.236200 
     31 C          25.144000   23.791000   12.777000 C.ar      1 <1>         0.294100 
     32 C          24.927000   22.439000   13.048000 C.ar      1 <1>        -0.359100 
     33 H          24.414000   21.785000   12.348000 H         1 <1>         0.212000 
     34 C          25.371000   21.879000   14.254000 C.ar      1 <1>        -0.022000 
     35 H          25.185000   20.822000   14.441000 H         1 <1>         0.145000 
     36 O          24.757000   24.441000   11.635000 O.3       1 <1>        -0.395100 
     37 C          25.071000   25.828000   11.542000 C.3       1 <1>         0.094700 
     38 H          24.684000   26.194000   10.586000 H         1 <1>         0.070400 
     39 H          26.154000   25.988000   11.546000 H         1 <1>         0.043700 
     40 H          24.581000   26.397000   12.339000 H         1 <1>         0.041800 
     41 O          26.054000   25.897000   13.486000 O.3       1 <1>        -0.347600 
     42 C          26.730000   26.486000   14.602000 C.3       1 <1>        -0.026000 
     43 H          26.806000   27.562000   14.415000 H         1 <1>         0.101800 
     44 H          27.745000   26.087000   14.702000 H         1 <1>         0.074300 
     45 H          26.168000   26.341000   15.531000 H         1 <1>         0.069000 
@<TRIPOS>BOND
     1    1    2 ar   
     2    2    3 1    
     3    3    4 ar   
     4    4    5 1    
     5    4    6 ar   
     6    6    7 1    
     7    6    8 ar   
     8    8    9 ar   
     9    9   10 1    
    10    9   11 ar   
    11   11   12 1    
    12   11    3 ar   
    13    8   13 1    
    14   13   14 2    
    15   13   15 2    
    16   13   16 1    
    17   16   17 1    
    18   16   18 1    
    19    2   19 ar   
    20   19   20 1    
    21   19   21 ar   
    22   21   22 ar   
    23   22   23 ar   
    24   23   24 1    
    25   23    1 ar   
    26   22   25 1    
    27   21   26 1    
    28    1   27 1    
    29   27   28 ar   
    30   28   29 1    
    31   28   30 ar   
    32   30   31 ar   
    33   31   32 ar   
    34   32   33 1    
    35   32   34 ar   
    36   34   35 1    
    37   34   27 ar   
    38   31   36 1    
    39   36   37 1    
    40   37   38 1    
    41   37   39 1    
    42   37   40 1    
    43   30   41 1    
    44   41   42 1    
    45   42   43 1    
    46   42   44 1    
    47   42   45 1    
@<TRIPOS>SUBSTRUCTURE
     1 ****        1 TEMP              0 ****  ****    0 ROOT 
@<TRIPOS>SET
UNITY_3DHIT     STATIC     ATOMS    <user>   **** Atoms matching 3D or FLEX Search
0
