#	Name:			7-21o
#	Creating user name:	jeff
#	Creation time:		Fri Dec 13 09:52:14 2002

#	Modifying user name:	jeff
#	Modification time:	Fri Dec 13 09:52:16 2002

@<TRIPOS>MOLECULE
7-21o
   45    47     1     0     1
SMALL
USER_CHARGES
****
From 3DB ct
@<TRIPOS>ATOM
      1 C          26.506000   22.061000   16.476000 C.ar      1 <1>         0.021500 
      2 C          25.610000   21.442000   17.390000 C.ar      1 <1>        -0.143700 
      3 C          24.156000   21.382000   17.154000 C.ar      1 <1>         0.354700 
      4 C          23.530000   22.287000   16.279000 C.ar      1 <1>        -0.296400 
      5 H          24.117000   23.047000   15.764000 H         1 <1>         0.185800 
      6 C          22.151000   22.232000   16.056000 C.ar      1 <1>         0.056000 
      7 H          21.687000   22.942000   15.374000 H         1 <1>         0.180600 
      8 C          21.383000   21.265000   16.709000 C.ar      1 <1>        -0.573800 
      9 C          21.983000   20.362000   17.589000 C.ar      1 <1>        -0.034500 
     10 H          21.393000   19.610000   18.107000 H         1 <1>         0.201400 
     11 C          23.363000   20.424000   17.808000 C.ar      1 <1>        -0.272300 
     12 H          23.820000   19.710000   18.493000 H         1 <1>         0.192000 
     13 S          19.630000   21.228000   16.449000 S.o2      1 <1>         2.453700 
     14 O          19.212000   22.500000   15.887000 O.2       1 <1>        -0.996500 
     15 O          18.975000   20.693000   17.629000 O.2       1 <1>        -0.997200 
     16 N          19.472000   20.074000   15.245000 N.pl3     1 <1>        -1.290300 
     17 H          19.075000   20.480000   14.394000 H         1 <1>         0.477600 
     18 H          18.919000   19.277000   15.571000 H         1 <1>         0.476600 
     19 C          26.124000   20.875000   18.573000 C.ar      1 <1>        -0.303700 
     20 H          25.463000   20.396000   19.292000 H         1 <1>         0.235400 
     21 C          27.486000   20.927000   18.847000 C.ar      1 <1>         0.351700 
     22 C          28.357000   21.538000   17.959000 C.ar      1 <1>         0.345700 
     23 C          27.881000   22.102000   16.783000 C.ar      1 <1>        -0.305600 
     24 H          28.588000   22.566000   16.100000 H         1 <1>         0.234600 
     25 F          29.669000   21.586000   18.233000 F         1 <1>        -0.305200 
     26 F          27.954000   20.384000   19.980000 F         1 <1>        -0.307800 
     27 C          26.050000   22.654000   15.208000 C.ar      1 <1>        -0.067700 
     28 C          26.272000   24.005000   14.924000 C.ar      1 <1>         0.238300 
     29 H          26.802000   24.624000   15.647000 H         1 <1>         0.096300 
     30 C          25.823000   24.577000   13.721000 C.ar      1 <1>        -0.835300 
     31 C          25.127000   23.817000   12.752000 C.ar      1 <1>         1.001000 
     32 C          24.943000   22.453000   13.050000 C.ar      1 <1>        -0.488200 
     33 H          24.413000   21.801000   12.357000 H         1 <1>         0.222800 
     34 C          25.390000   21.882000   14.249000 C.ar      1 <1>        -0.083800 
     35 H          25.206000   20.823000   14.427000 H         1 <1>         0.167300 
     36 N          24.631000   24.336000   11.558000 N.pl3     1 <1>        -0.801600 
     37 C          25.520000   24.599000   10.428000 C.3       1 <1>         0.071900 
     38 H          25.055000   25.309000    9.735000 H         1 <1>         0.091800 
     39 H          25.731000   23.678000    9.876000 H         1 <1>         0.027600 
     40 H          26.463000   25.047000   10.760000 H         1 <1>         0.051900 
     41 C          23.197000   24.282000   11.273000 C.3       1 <1>        -0.061900 
     42 H          23.025000   23.983000   10.232000 H         1 <1>         0.066100 
     43 H          22.745000   25.269000   11.410000 H         1 <1>         0.132000 
     44 H          22.675000   23.550000   11.899000 H         1 <1>         0.073600 
     45 Cl         26.258000   26.240000   13.471000 Cl        1 <1>         0.157800 
@<TRIPOS>BOND
     1    1    2 ar   
     2    2    3 1    
     3    3    4 ar   
     4    4    5 1    
     5    4    6 ar   
     6    6    7 1    
     7    6    8 ar   
     8    8    9 ar   
     9    9   10 1    
    10    9   11 ar   
    11   11   12 1    
    12   11    3 ar   
    13    8   13 1    
    14   13   14 2    
    15   13   15 2    
    16   13   16 1    
    17   16   17 1    
    18   16   18 1    
    19    2   19 ar   
    20   19   20 1    
    21   19   21 ar   
    22   21   22 ar   
    23   22   23 ar   
    24   23   24 1    
    25   23    1 ar   
    26   22   25 1    
    27   21   26 1    
    28    1   27 1    
    29   27   28 ar   
    30   28   29 1    
    31   28   30 ar   
    32   30   31 ar   
    33   31   32 ar   
    34   32   33 1    
    35   32   34 ar   
    36   34   35 1    
    37   34   27 ar   
    38   31   36 1    
    39   36   37 1    
    40   37   38 1    
    41   37   39 1    
    42   37   40 1    
    43   36   41 1    
    44   41   42 1    
    45   41   43 1    
    46   41   44 1    
    47   30   45 1    
@<TRIPOS>SUBSTRUCTURE
     1 ****        1 TEMP              0 ****  ****    0 ROOT 
@<TRIPOS>SET
UNITY_3DHIT     STATIC     ATOMS    <user>   **** Atoms matching 3D or FLEX Search
0
