#	Name:			7-21l
#	Creating user name:	jeff
#	Creation time:		Fri Dec 13 09:52:07 2002

#	Modifying user name:	jeff
#	Modification time:	Fri Dec 13 09:52:09 2002

@<TRIPOS>MOLECULE
7-21l
   40    42     1     0     1
SMALL
USER_CHARGES
****
From 3DB ct
@<TRIPOS>ATOM
      1 C          26.505000   22.055000   16.472000 C.ar      1 <1>        -0.045700 
      2 C          25.612000   21.446000   17.396000 C.ar      1 <1>        -0.085700 
      3 C          24.161000   21.389000   17.161000 C.ar      1 <1>         0.314200 
      4 C          23.543000   22.290000   16.279000 C.ar      1 <1>        -0.284900 
      5 H          24.136000   23.045000   15.762000 H         1 <1>         0.188100 
      6 C          22.166000   22.235000   16.047000 C.ar      1 <1>         0.053600 
      7 H          21.707000   22.942000   15.359000 H         1 <1>         0.180800 
      8 C          21.394000   21.269000   16.699000 C.ar      1 <1>        -0.579600 
      9 C          21.987000   20.373000   17.590000 C.ar      1 <1>        -0.020400 
     10 H          21.393000   19.624000   18.108000 H         1 <1>         0.200400 
     11 C          23.365000   20.435000   17.817000 C.ar      1 <1>        -0.275500 
     12 H          23.820000   19.727000   18.510000 H         1 <1>         0.194000 
     13 S          19.643000   21.226000   16.430000 S.o2      1 <1>         2.448600 
     14 O          19.220000   22.494000   15.862000 O.2       1 <1>        -0.993700 
     15 O          18.986000   20.692000   17.609000 O.2       1 <1>        -0.994000 
     16 N          19.498000   20.069000   15.226000 N.pl3     1 <1>        -1.295300 
     17 H          19.101000   20.471000   14.374000 H         1 <1>         0.479100 
     18 H          18.952000   19.266000   15.550000 H         1 <1>         0.480800 
     19 C          26.128000   20.884000   18.580000 C.ar      1 <1>        -0.325400 
     20 H          25.467000   20.413000   19.305000 H         1 <1>         0.243500 
     21 C          27.492000   20.929000   18.844000 C.ar      1 <1>         0.354900 
     22 C          28.362000   21.526000   17.945000 C.ar      1 <1>         0.344600 
     23 C          27.881000   22.087000   16.768000 C.ar      1 <1>        -0.280400 
     24 H          28.586000   22.547000   16.079000 H         1 <1>         0.227300 
     25 F          29.676000   21.565000   18.208000 F         1 <1>        -0.304800 
     26 F          27.964000   20.391000   19.978000 F         1 <1>        -0.306600 
     27 C          26.039000   22.652000   15.211000 C.ar      1 <1>        -0.016200 
     28 C          26.256000   24.009000   14.936000 C.ar      1 <1>         0.208000 
     29 H          26.772000   24.630000   15.666000 H         1 <1>         0.095400 
     30 C          25.808000   24.577000   13.738000 C.ar      1 <1>        -0.748000 
     31 C          25.135000   23.800000   12.784000 C.ar      1 <1>         0.570800 
     32 C          24.924000   22.441000   13.057000 C.ar      1 <1>        -0.392900 
     33 H          24.407000   21.807000   12.338000 H         1 <1>         0.202000 
     34 C          25.373000   21.875000   14.254000 C.ar      1 <1>        -0.062200 
     35 H          25.194000   20.816000   14.435000 H         1 <1>         0.156900 
     36 C          24.637000   24.380000   11.490000 C.3       1 <1>        -0.416000 
     37 H          24.135000   23.622000   10.877000 H         1 <1>         0.111800 
     38 H          25.471000   24.776000   10.902000 H         1 <1>         0.111600 
     39 H          23.912000   25.177000   11.682000 H         1 <1>         0.109900 
     40 Cl         26.112000   26.259000   13.478000 Cl        1 <1>         0.151100 
@<TRIPOS>BOND
     1    1    2 ar   
     2    2    3 1    
     3    3    4 ar   
     4    4    5 1    
     5    4    6 ar   
     6    6    7 1    
     7    6    8 ar   
     8    8    9 ar   
     9    9   10 1    
    10    9   11 ar   
    11   11   12 1    
    12   11    3 ar   
    13    8   13 1    
    14   13   14 2    
    15   13   15 2    
    16   13   16 1    
    17   16   17 1    
    18   16   18 1    
    19    2   19 ar   
    20   19   20 1    
    21   19   21 ar   
    22   21   22 ar   
    23   22   23 ar   
    24   23   24 1    
    25   23    1 ar   
    26   22   25 1    
    27   21   26 1    
    28    1   27 1    
    29   27   28 ar   
    30   28   29 1    
    31   28   30 ar   
    32   30   31 ar   
    33   31   32 ar   
    34   32   33 1    
    35   32   34 ar   
    36   34   35 1    
    37   34   27 ar   
    38   31   36 1    
    39   36   37 1    
    40   36   38 1    
    41   36   39 1    
    42   30   40 1    
@<TRIPOS>SUBSTRUCTURE
     1 ****        1 TEMP              0 ****  ****    0 ROOT 
@<TRIPOS>SET
UNITY_3DHIT     STATIC     ATOMS    <user>   **** Atoms matching 3D or FLEX Search
0
