#	Name:			7-21m
#	Creating user name:	jeff
#	Creation time:		Fri Dec 13 09:52:09 2002

#	Modifying user name:	jeff
#	Modification time:	Fri Dec 13 09:52:12 2002

@<TRIPOS>MOLECULE
7-21m
   43    45     1     0     1
SMALL
USER_CHARGES
****
From 3DB ct
@<TRIPOS>ATOM
      1 C          26.502000   22.062000   16.474000 C.ar      1 <1>         0.168700 
      2 C          25.607000   21.441000   17.390000 C.ar      1 <1>        -0.270300 
      3 C          24.152000   21.381000   17.158000 C.ar      1 <1>         0.463100 
      4 C          23.524000   22.285000   16.283000 C.ar      1 <1>        -0.362000 
      5 H          24.111000   23.042000   15.764000 H         1 <1>         0.209300 
      6 C          22.145000   22.229000   16.062000 C.ar      1 <1>         0.075900 
      7 H          21.680000   22.936000   15.378000 H         1 <1>         0.179500 
      8 C          21.378000   21.263000   16.717000 C.ar      1 <1>        -0.599000 
      9 C          21.979000   20.364000   17.601000 C.ar      1 <1>         0.000000 
     10 H          21.390000   19.612000   18.121000 H         1 <1>         0.197900 
     11 C          23.359000   20.426000   17.817000 C.ar      1 <1>        -0.321200 
     12 H          23.818000   19.715000   18.504000 H         1 <1>         0.200100 
     13 S          19.628000   21.220000   16.451000 S.o2      1 <1>         2.455600 
     14 O          19.209000   22.487000   15.879000 O.2       1 <1>        -0.999000 
     15 O          18.970000   20.690000   17.632000 O.2       1 <1>        -0.997900 
     16 N          19.478000   20.058000   15.254000 N.pl3     1 <1>        -1.297100 
     17 H          19.077000   20.455000   14.400000 H         1 <1>         0.479400 
     18 H          18.934000   19.256000   15.584000 H         1 <1>         0.480700 
     19 C          26.122000   20.874000   18.573000 C.ar      1 <1>        -0.249800 
     20 H          25.461000   20.396000   19.292000 H         1 <1>         0.222800 
     21 C          27.483000   20.926000   18.847000 C.ar      1 <1>         0.318400 
     22 C          28.354000   21.537000   17.959000 C.ar      1 <1>         0.391500 
     23 C          27.877000   22.102000   16.783000 C.ar      1 <1>        -0.410900 
     24 H          28.584000   22.569000   16.101000 H         1 <1>         0.266700 
     25 F          29.666000   21.585000   18.231000 F         1 <1>        -0.312900 
     26 F          27.951000   20.384000   19.980000 F         1 <1>        -0.307700 
     27 C          26.050000   22.653000   15.202000 C.ar      1 <1>        -0.000700 
     28 C          26.272000   24.011000   14.923000 C.ar      1 <1>        -0.309400 
     29 H          26.779000   24.628000   15.665000 H         1 <1>         0.213700 
     30 C          25.845000   24.595000   13.716000 C.ar      1 <1>         0.093100 
     31 C          25.187000   23.798000   12.760000 C.ar      1 <1>         0.081000 
     32 C          24.969000   22.441000   13.034000 C.ar      1 <1>        -0.232200 
     33 H          24.460000   21.805000   12.309000 H         1 <1>         0.188400 
     34 C          25.397000   21.876000   14.238000 C.ar      1 <1>        -0.175100 
     35 H          25.213000   20.817000   14.419000 H         1 <1>         0.163800 
     36 C          24.707000   24.372000   11.454000 C.3       1 <1>        -0.271000 
     37 H          24.256000   23.603000   10.818000 H         1 <1>         0.084800 
     38 H          25.543000   24.808000   10.899000 H         1 <1>         0.092900 
     39 H          23.947000   25.140000   11.635000 H         1 <1>         0.091200 
     40 C          26.101000   26.059000   13.476000 C.3       1 <1>        -0.261400 
     41 H          26.744000   26.192000   12.601000 H         1 <1>         0.089100 
     42 H          26.603000   26.525000   14.330000 H         1 <1>         0.079800 
     43 H          25.156000   26.589000   13.321000 H         1 <1>         0.090200 
@<TRIPOS>BOND
     1    1    2 ar   
     2    2    3 1    
     3    3    4 ar   
     4    4    5 1    
     5    4    6 ar   
     6    6    7 1    
     7    6    8 ar   
     8    8    9 ar   
     9    9   10 1    
    10    9   11 ar   
    11   11   12 1    
    12   11    3 ar   
    13    8   13 1    
    14   13   14 2    
    15   13   15 2    
    16   13   16 1    
    17   16   17 1    
    18   16   18 1    
    19    2   19 ar   
    20   19   20 1    
    21   19   21 ar   
    22   21   22 ar   
    23   22   23 ar   
    24   23   24 1    
    25   23    1 ar   
    26   22   25 1    
    27   21   26 1    
    28    1   27 1    
    29   27   28 ar   
    30   28   29 1    
    31   28   30 ar   
    32   30   31 ar   
    33   31   32 ar   
    34   32   33 1    
    35   32   34 ar   
    36   34   35 1    
    37   34   27 ar   
    38   31   36 1    
    39   36   37 1    
    40   36   38 1    
    41   36   39 1    
    42   30   40 1    
    43   40   41 1    
    44   40   42 1    
    45   40   43 1    
@<TRIPOS>SUBSTRUCTURE
     1 ****        1 TEMP              0 ****  ****    0 ROOT 
@<TRIPOS>SET
UNITY_3DHIT     STATIC     ATOMS    <user>   **** Atoms matching 3D or FLEX Search
0
