#	Name:			7-21j
#	Creating user name:	jeff
#	Creation time:		Fri Dec 13 09:52:03 2002

#	Modifying user name:	jeff
#	Modification time:	Fri Dec 13 09:52:05 2002

@<TRIPOS>MOLECULE
7-21j
   40    43     1     0     1
SMALL
USER_CHARGES
****
From 3DB ct
@<TRIPOS>ATOM
      1 C          26.506000   22.067000   16.475000 C.ar      1 <1>         0.154100 
      2 C          25.613000   21.442000   17.390000 C.ar      1 <1>        -0.249800 
      3 C          24.159000   21.388000   17.160000 C.ar      1 <1>         0.466600 
      4 C          23.538000   22.289000   16.279000 C.ar      1 <1>        -0.385700 
      5 H          24.129000   23.043000   15.758000 H         1 <1>         0.217800 
      6 C          22.160000   22.236000   16.052000 C.ar      1 <1>         0.092700 
      7 H          21.699000   22.940000   15.363000 H         1 <1>         0.177100 
      8 C          21.389000   21.274000   16.710000 C.ar      1 <1>        -0.610600 
      9 C          21.983000   20.378000   17.600000 C.ar      1 <1>         0.030500 
     10 H          21.390000   19.631000   18.123000 H         1 <1>         0.192900 
     11 C          23.363000   20.438000   17.822000 C.ar      1 <1>        -0.344800 
     12 H          23.817000   19.729000   18.513000 H         1 <1>         0.204200 
     13 S          19.641000   21.229000   16.425000 S.o2      1 <1>         2.446400 
     14 O          19.230000   22.497000   15.850000 O.2       1 <1>        -0.993900 
     15 O          18.971000   20.695000   17.598000 O.2       1 <1>        -0.993500 
     16 N          19.505000   20.066000   15.227000 N.pl3     1 <1>        -1.302900 
     17 H          19.115000   20.463000   14.369000 H         1 <1>         0.483900 
     18 H          18.957000   19.265000   15.551000 H         1 <1>         0.482600 
     19 C          26.133000   20.864000   18.566000 C.ar      1 <1>        -0.260500 
     20 H          25.474000   20.379000   19.282000 H         1 <1>         0.227900 
     21 C          27.495000   20.915000   18.835000 C.ar      1 <1>         0.325200 
     22 C          28.362000   21.534000   17.948000 C.ar      1 <1>         0.390800 
     23 C          27.881000   22.106000   16.777000 C.ar      1 <1>        -0.401700 
     24 H          28.586000   22.576000   16.095000 H         1 <1>         0.269300 
     25 F          29.675000   21.580000   18.216000 F         1 <1>        -0.312700 
     26 F          27.968000   20.363000   19.961000 F         1 <1>        -0.306300 
     27 C          26.045000   22.666000   15.210000 C.ar      1 <1>        -0.036600 
     28 C          26.258000   24.031000   14.947000 C.ar      1 <1>        -0.333100 
     29 H          26.762000   24.671000   15.666000 H         1 <1>         0.256500 
     30 C          25.800000   24.548000   13.752000 C.ar      1 <1>         0.214000 
     31 C          25.154000   23.767000   12.823000 C.ar      1 <1>         0.273700 
     32 C          24.931000   22.425000   13.035000 C.ar      1 <1>        -0.344900 
     33 H          24.422000   21.812000   12.298000 H         1 <1>         0.243600 
     34 C          25.383000   21.874000   14.240000 C.ar      1 <1>        -0.096600 
     35 H          25.216000   20.814000   14.428000 H         1 <1>         0.162000 
     36 O          24.785000   24.469000   11.719000 O.3       1 <1>        -0.407200 
     37 C          25.267000   25.791000   12.058000 C.3       1 <1>         0.276800 
     38 H          24.418000   26.483000   12.065000 H         1 <1>         0.096300 
     39 H          25.983000   26.111000   11.292000 H         1 <1>         0.099400 
     40 O          25.917000   25.842000   13.350000 O.3       1 <1>        -0.403500 
@<TRIPOS>BOND
     1    1    2 ar   
     2    2    3 1    
     3    3    4 ar   
     4    4    5 1    
     5    4    6 ar   
     6    6    7 1    
     7    6    8 ar   
     8    8    9 ar   
     9    9   10 1    
    10    9   11 ar   
    11   11   12 1    
    12   11    3 ar   
    13    8   13 1    
    14   13   14 2    
    15   13   15 2    
    16   13   16 1    
    17   16   17 1    
    18   16   18 1    
    19    2   19 ar   
    20   19   20 1    
    21   19   21 ar   
    22   21   22 ar   
    23   22   23 ar   
    24   23   24 1    
    25   23    1 ar   
    26   22   25 1    
    27   21   26 1    
    28    1   27 1    
    29   27   28 ar   
    30   28   29 1    
    31   28   30 ar   
    32   30   31 ar   
    33   31   32 ar   
    34   32   33 1    
    35   32   34 ar   
    36   34   35 1    
    37   34   27 ar   
    38   31   36 1    
    39   36   37 1    
    40   37   38 1    
    41   37   39 1    
    42   37   40 1    
    43   40   30 1    
@<TRIPOS>SUBSTRUCTURE
     1 ****        1 TEMP              0 ****  ****    0 ROOT 
@<TRIPOS>SET
UNITY_3DHIT     STATIC     ATOMS    <user>   **** Atoms matching 3D or FLEX Search
0
