#	Name:			7-21d
#	Creating user name:	jeff
#	Creation time:		Fri Dec 13 09:51:49 2002

#	Modifying user name:	jeff
#	Modification time:	Fri Dec 13 09:51:51 2002

@<TRIPOS>MOLECULE
7-21d
   41    43     1     0     1
SMALL
USER_CHARGES
****
From 3DB ct
@<TRIPOS>ATOM
      1 C          26.505000   22.058000   16.473000 C.ar      1 <1>         0.150900 
      2 C          25.613000   21.442000   17.396000 C.ar      1 <1>        -0.220100 
      3 C          24.159000   21.394000   17.169000 C.ar      1 <1>         0.416900 
      4 C          23.542000   22.287000   16.277000 C.ar      1 <1>        -0.350700 
      5 H          24.136000   23.034000   15.752000 H         1 <1>         0.215600 
      6 C          22.165000   22.230000   16.046000 C.ar      1 <1>         0.059400 
      7 H          21.707000   22.928000   15.348000 H         1 <1>         0.181400 
      8 C          21.392000   21.273000   16.707000 C.ar      1 <1>        -0.572300 
      9 C          21.983000   20.386000   17.609000 C.ar      1 <1>        -0.015800 
     10 H          21.389000   19.641000   18.134000 H         1 <1>         0.199800 
     11 C          23.361000   20.450000   17.837000 C.ar      1 <1>        -0.302600 
     12 H          23.814000   19.747000   18.535000 H         1 <1>         0.198800 
     13 S          19.645000   21.219000   16.415000 S.o2      1 <1>         2.442100 
     14 O          19.229000   22.481000   15.829000 O.2       1 <1>        -0.993500 
     15 O          18.972000   20.693000   17.589000 O.2       1 <1>        -0.993600 
     16 N          19.521000   20.048000   15.224000 N.pl3     1 <1>        -1.291400 
     17 H          19.134000   20.437000   14.360000 H         1 <1>         0.479900 
     18 H          18.975000   19.246000   15.550000 H         1 <1>         0.479500 
     19 C          26.132000   20.869000   18.573000 C.ar      1 <1>        -0.278400 
     20 H          25.473000   20.394000   19.296000 H         1 <1>         0.233800 
     21 C          27.496000   20.911000   18.836000 C.ar      1 <1>         0.336600 
     22 C          28.364000   21.517000   17.941000 C.ar      1 <1>         0.383000 
     23 C          27.882000   22.088000   16.770000 C.ar      1 <1>        -0.396500 
     24 H          28.587000   22.549000   16.082000 H         1 <1>         0.272200 
     25 F          29.679000   21.553000   18.202000 F         1 <1>        -0.311900 
     26 F          27.970000   20.362000   19.963000 F         1 <1>        -0.306800 
     27 C          26.041000   22.655000   15.209000 C.ar      1 <1>        -0.122000 
     28 C          26.258000   24.011000   14.932000 C.ar      1 <1>        -0.346400 
     29 H          26.773000   24.646000   15.648000 H         1 <1>         0.262800 
     30 C          25.806000   24.575000   13.737000 C.ar      1 <1>         0.360900 
     31 C          25.133000   23.805000   12.785000 C.ar      1 <1>         0.297300 
     32 C          24.921000   22.451000   13.054000 C.ar      1 <1>        -0.403800 
     33 H          24.400000   21.826000   12.331000 H         1 <1>         0.228800 
     34 C          25.372000   21.881000   14.249000 C.ar      1 <1>         0.024300 
     35 H          25.191000   20.821000   14.428000 H         1 <1>         0.144400 
     36 O          24.636000   24.221000   11.579000 O.3       1 <1>        -0.370600 
     37 C          24.818000   25.593000   11.239000 C.3       1 <1>         0.035000 
     38 H          24.368000   25.753000   10.254000 H         1 <1>         0.088000 
     39 H          25.881000   25.842000   11.163000 H         1 <1>         0.071400 
     40 H          24.300000   26.246000   11.949000 H         1 <1>         0.075500 
     41 F          26.043000   25.880000   13.542000 F         1 <1>        -0.361800 
@<TRIPOS>BOND
     1    1    2 ar   
     2    2    3 1    
     3    3    4 ar   
     4    4    5 1    
     5    4    6 ar   
     6    6    7 1    
     7    6    8 ar   
     8    8    9 ar   
     9    9   10 1    
    10    9   11 ar   
    11   11   12 1    
    12   11    3 ar   
    13    8   13 1    
    14   13   14 2    
    15   13   15 2    
    16   13   16 1    
    17   16   17 1    
    18   16   18 1    
    19    2   19 ar   
    20   19   20 1    
    21   19   21 ar   
    22   21   22 ar   
    23   22   23 ar   
    24   23   24 1    
    25   23    1 ar   
    26   22   25 1    
    27   21   26 1    
    28    1   27 1    
    29   27   28 ar   
    30   28   29 1    
    31   28   30 ar   
    32   30   31 ar   
    33   31   32 ar   
    34   32   33 1    
    35   32   34 ar   
    36   34   35 1    
    37   34   27 ar   
    38   31   36 1    
    39   36   37 1    
    40   37   38 1    
    41   37   39 1    
    42   37   40 1    
    43   30   41 1    
@<TRIPOS>SUBSTRUCTURE
     1 ****        1 TEMP              0 ****  ****    0 ROOT 
@<TRIPOS>SET
UNITY_3DHIT     STATIC     ATOMS    <user>   **** Atoms matching 3D or FLEX Search
0
