#	Name:			7-21q
#	Creating user name:	jeff
#	Creation time:		Fri Dec 13 09:52:28 2002

#	Modifying user name:	jeff
#	Modification time:	Fri Dec 13 09:52:30 2002

@<TRIPOS>MOLECULE
7-21q
   39    41     1     0     1
SMALL
USER_CHARGES
****
From 3DB ct
@<TRIPOS>ATOM
      1 C          26.506000   22.066000   16.483000 C.ar      1 <1>        -0.016600 
      2 C          25.607000   21.442000   17.393000 C.ar      1 <1>        -0.066900 
      3 C          24.153000   21.391000   17.161000 C.ar      1 <1>         0.323100 
      4 C          23.527000   22.291000   16.281000 C.ar      1 <1>        -0.317000 
      5 H          24.114000   23.044000   15.758000 H         1 <1>         0.195200 
      6 C          22.148000   22.238000   16.062000 C.ar      1 <1>         0.068300 
      7 H          21.685000   22.943000   15.374000 H         1 <1>         0.177400 
      8 C          21.376000   21.288000   16.735000 C.ar      1 <1>        -0.582300 
      9 C          21.976000   20.385000   17.615000 C.ar      1 <1>        -0.013400 
     10 H          21.385000   19.639000   18.140000 H         1 <1>         0.200800 
     11 C          23.357000   20.442000   17.827000 C.ar      1 <1>        -0.272200 
     12 H          23.813000   19.732000   18.516000 H         1 <1>         0.193000 
     13 S          19.633000   21.212000   16.430000 S.o2      1 <1>         2.451100 
     14 O          19.195000   22.448000   15.806000 O.2       1 <1>        -0.995900 
     15 O          18.967000   20.711000   17.619000 O.2       1 <1>        -0.994500 
     16 N          19.530000   20.018000   15.260000 N.pl3     1 <1>        -1.300500 
     17 H          19.154000   20.391000   14.384000 H         1 <1>         0.482900 
     18 H          18.982000   19.221000   15.592000 H         1 <1>         0.483700 
     19 C          26.121000   20.850000   18.564000 C.ar      1 <1>        -0.334400 
     20 H          25.457000   20.369000   19.279000 H         1 <1>         0.242100 
     21 C          27.484000   20.875000   18.831000 C.ar      1 <1>         0.361700 
     22 C          28.360000   21.481000   17.944000 C.ar      1 <1>         0.350800 
     23 C          27.885000   22.070000   16.779000 C.ar      1 <1>        -0.307200 
     24 H          28.597000   22.530000   16.098000 H         1 <1>         0.242200 
     25 F          29.675000   21.498000   18.205000 F         1 <1>        -0.308100 
     26 F          27.950000   20.306000   19.952000 F         1 <1>        -0.308500 
     27 C          26.053000   22.687000   15.224000 C.ar      1 <1>        -0.264300 
     28 C          26.221000   24.057000   14.937000 C.ar      1 <1>         0.115000 
     29 H          26.624000   24.631000   15.579000 H         1 <1>         0.153100 
     30 C          25.785000   24.549000   13.699000 C.ar      1 <1>        -0.624400 
     31 H          25.905000   25.596000   13.433000 H         1 <1>         0.250100 
     32 C          25.187000   23.683000   12.798000 C.ar      1 <1>         0.689400 
     33 N          25.002000   22.367000   13.037000 N.ar      1 <1>        -0.724100 
     34 C          25.438000   21.907000   14.238000 C.ar      1 <1>         0.381900 
     35 H          25.282000   20.840000   14.398000 H         1 <1>         0.109900 
     36 C          24.705000   24.181000   11.468000 C.3       1 <1>        -0.340300 
     37 H          24.325000   23.461000   10.979000 H         1 <1>         0.115900 
     38 H          24.049000   24.855000   11.601000 H         1 <1>         0.088600 
     39 H          25.437000   24.543000   10.981000 H         1 <1>         0.094400 
@<TRIPOS>BOND
     1    1    2 ar   
     2    2    3 1    
     3    3    4 ar   
     4    4    5 1    
     5    4    6 ar   
     6    6    7 1    
     7    6    8 ar   
     8    8    9 ar   
     9    9   10 1    
    10    9   11 ar   
    11   11   12 1    
    12   11    3 ar   
    13    8   13 1    
    14   13   14 2    
    15   13   15 2    
    16   13   16 1    
    17   16   17 1    
    18   16   18 1    
    19    2   19 ar   
    20   19   20 1    
    21   19   21 ar   
    22   21   22 ar   
    23   22   23 ar   
    24   23   24 1    
    25   23    1 ar   
    26   22   25 1    
    27   21   26 1    
    28    1   27 1    
    29   27   28 ar   
    30   28   29 1    
    31   28   30 ar   
    32   30   31 1    
    33   30   32 ar   
    34   32   33 ar   
    35   33   34 ar   
    36   34   35 1    
    37   34   27 ar   
    38   32   36 1    
    39   36   37 1    
    40   36   38 1    
    41   36   39 1    
@<TRIPOS>SUBSTRUCTURE
     1 ****        1 TEMP              0 ****  ****    0 ROOT 
@<TRIPOS>SET
UNITY_3DHIT     STATIC     ATOMS    <user>   **** Atoms matching 3D or FLEX Search
0
