#	Name:			7-21p
#	Creating user name:	jeff
#	Creation time:		Fri Dec 13 09:52:32 2002

#	Modifying user name:	jeff
#	Modification time:	Fri Dec 13 09:52:34 2002

@<TRIPOS>MOLECULE
7-21p
   39    41     1     0     1
SMALL
USER_CHARGES
****
From 3DB ct
@<TRIPOS>ATOM
      1 C          26.499000   22.056000   16.452000 C.ar      1 <1>        -0.127000 
      2 C          25.599000   21.468000   17.386000 C.ar      1 <1>        -0.111100 
      3 C          24.143000   21.395000   17.158000 C.ar      1 <1>         0.333000 
      4 C          23.508000   22.294000   16.284000 C.ar      1 <1>        -0.318600 
      5 H          24.088000   23.052000   15.758000 H         1 <1>         0.188900 
      6 C          22.128000   22.230000   16.064000 C.ar      1 <1>         0.068600 
      7 H          21.659000   22.934000   15.379000 H         1 <1>         0.171000 
      8 C          21.368000   21.258000   16.719000 C.ar      1 <1>        -0.582000 
      9 C          21.975000   20.364000   17.602000 C.ar      1 <1>         0.003400 
     10 H          21.392000   19.609000   18.124000 H         1 <1>         0.188800 
     11 C          23.355000   20.435000   17.818000 C.ar      1 <1>        -0.256000 
     12 H          23.815000   19.731000   18.511000 H         1 <1>         0.196500 
     13 S          19.617000   21.203000   16.455000 S.o2      1 <1>         2.429800 
     14 O          19.188000   22.461000   15.871000 O.2       1 <1>        -0.992400 
     15 O          18.964000   20.681000   17.642000 O.2       1 <1>        -0.991400 
     16 N          19.476000   20.027000   15.270000 N.pl3     1 <1>        -1.301700 
     17 H          19.072000   20.414000   14.413000 H         1 <1>         0.481700 
     18 H          18.936000   19.226000   15.608000 H         1 <1>         0.484800 
     19 C          26.116000   20.902000   18.571000 C.ar      1 <1>        -0.273900 
     20 H          25.454000   20.442000   19.301000 H         1 <1>         0.227300 
     21 C          27.483000   20.904000   18.822000 C.ar      1 <1>         0.341000 
     22 C          28.360000   21.462000   17.908000 C.ar      1 <1>         0.366300 
     23 C          27.882000   22.031000   16.735000 C.ar      1 <1>        -0.303200 
     24 H          28.594000   22.466000   16.036000 H         1 <1>         0.231300 
     25 F          29.679000   21.458000   18.153000 F         1 <1>        -0.312300 
     26 F          27.949000   20.356000   19.953000 F         1 <1>        -0.308800 
     27 C          26.057000   22.698000   15.200000 C.ar      1 <1>         0.721700 
     28 C          26.255000   24.052000   14.941000 C.ar      1 <1>        -0.590800 
     29 H          26.744000   24.695000   15.667000 H         1 <1>         0.244200 
     30 C          25.819000   24.582000   13.729000 C.ar      1 <1>         0.028200 
     31 H          25.959000   25.642000   13.525000 H         1 <1>         0.171800 
     32 C          25.212000   23.751000   12.788000 C.ar      1 <1>        -0.116700 
     33 C          25.053000   22.413000   13.126000 C.ar      1 <1>         0.235800 
     34 H          24.572000   21.717000   12.441000 H         1 <1>         0.153300 
     35 N          25.468000   21.870000   14.297000 N.ar      1 <1>        -0.687800 
     36 C          24.698000   24.290000   11.491000 C.3       1 <1>        -0.284800 
     37 H          23.663000   24.626000   11.608000 H         1 <1>         0.100600 
     38 H          24.735000   23.525000   10.708000 H         1 <1>         0.093600 
     39 H          25.307000   25.133000   11.150000 H         1 <1>         0.096800 
@<TRIPOS>BOND
     1    1    2 ar   
     2    2    3 1    
     3    3    4 ar   
     4    4    5 1    
     5    4    6 ar   
     6    6    7 1    
     7    6    8 ar   
     8    8    9 ar   
     9    9   10 1    
    10    9   11 ar   
    11   11   12 1    
    12   11    3 ar   
    13    8   13 1    
    14   13   14 2    
    15   13   15 2    
    16   13   16 1    
    17   16   17 1    
    18   16   18 1    
    19    2   19 ar   
    20   19   20 1    
    21   19   21 ar   
    22   21   22 ar   
    23   22   23 ar   
    24   23   24 1    
    25   23    1 ar   
    26   22   25 1    
    27   21   26 1    
    28    1   27 1    
    29   27   28 ar   
    30   28   29 1    
    31   28   30 ar   
    32   30   31 1    
    33   30   32 ar   
    34   32   33 ar   
    35   33   34 1    
    36   33   35 ar   
    37   35   27 ar   
    38   32   36 1    
    39   36   37 1    
    40   36   38 1    
    41   36   39 1    
@<TRIPOS>SUBSTRUCTURE
     1 ****        1 TEMP              0 ****  ****    0 ROOT 
@<TRIPOS>SET
UNITY_3DHIT     STATIC     ATOMS    <user>   **** Atoms matching 3D or FLEX Search
0
