#	Name:			7-21c
#	Creating user name:	jeff
#	Creation time:		Fri Dec 13 09:51:46 2002

#	Modifying user name:	jeff
#	Modification time:	Fri Dec 13 09:51:49 2002

@<TRIPOS>MOLECULE
7-21c
   40    42     1     0     1
SMALL
USER_CHARGES
****
From 3DB ct
@<TRIPOS>ATOM
      1 C          26.503000   22.059000   16.471000 C.ar      1 <1>         0.128100 
      2 C          25.607000   21.443000   17.389000 C.ar      1 <1>        -0.227100 
      3 C          24.151000   21.385000   17.159000 C.ar      1 <1>         0.441600 
      4 C          23.523000   22.286000   16.282000 C.ar      1 <1>        -0.371000 
      5 H          24.110000   23.041000   15.760000 H         1 <1>         0.212100 
      6 C          22.143000   22.233000   16.066000 C.ar      1 <1>         0.081000 
      7 H          21.678000   22.939000   15.382000 H         1 <1>         0.180800 
      8 C          21.375000   21.279000   16.737000 C.ar      1 <1>        -0.605400 
      9 C          21.978000   20.374000   17.613000 C.ar      1 <1>         0.006700 
     10 H          21.389000   19.624000   18.137000 H         1 <1>         0.198400 
     11 C          23.359000   20.433000   17.824000 C.ar      1 <1>        -0.321100 
     12 H          23.818000   19.721000   18.509000 H         1 <1>         0.201400 
     13 S          19.630000   21.207000   16.439000 S.o2      1 <1>         2.461600 
     14 O          19.170000   22.491000   15.938000 O.2       1 <1>        -0.998400 
     15 O          18.983000   20.586000   17.580000 O.2       1 <1>        -0.996400 
     16 N          19.535000   20.129000   15.161000 N.pl3     1 <1>        -1.297400 
     17 H          19.148000   20.577000   14.326000 H         1 <1>         0.481500 
     18 H          19.001000   19.295000   15.420000 H         1 <1>         0.480300 
     19 C          26.122000   20.877000   18.573000 C.ar      1 <1>        -0.271500 
     20 H          25.460000   20.403000   19.295000 H         1 <1>         0.230600 
     21 C          27.483000   20.924000   18.845000 C.ar      1 <1>         0.334600 
     22 C          28.355000   21.530000   17.955000 C.ar      1 <1>         0.380500 
     23 C          27.878000   22.095000   16.778000 C.ar      1 <1>        -0.387900 
     24 H          28.587000   22.559000   16.096000 H         1 <1>         0.264100 
     25 F          29.668000   21.572000   18.224000 F         1 <1>        -0.310800 
     26 F          27.951000   20.382000   19.979000 F         1 <1>        -0.306500 
     27 C          26.051000   22.654000   15.200000 C.ar      1 <1>        -0.058400 
     28 C          26.273000   24.016000   14.928000 C.ar      1 <1>        -0.241400 
     29 H          26.776000   24.636000   15.671000 H         1 <1>         0.223400 
     30 C          25.846000   24.596000   13.724000 C.ar      1 <1>        -0.016900 
     31 C          25.177000   23.796000   12.797000 C.ar      1 <1>         0.447900 
     32 C          24.954000   22.446000   13.038000 C.ar      1 <1>        -0.379000 
     33 H          24.436000   21.842000   12.298000 H         1 <1>         0.233700 
     34 C          25.393000   21.875000   14.233000 C.ar      1 <1>        -0.066200 
     35 H          25.214000   20.816000   14.411000 H         1 <1>         0.162600 
     36 F          24.736000   24.330000   11.649000 F         1 <1>        -0.330800 
     37 C          26.051000   26.058000   13.464000 C.3       1 <1>        -0.223500 
     38 H          26.289000   26.235000   12.410000 H         1 <1>         0.094300 
     39 H          26.885000   26.450000   14.054000 H         1 <1>         0.074800 
     40 H          25.146000   26.615000   13.724000 H         1 <1>         0.089800 
@<TRIPOS>BOND
     1    1    2 ar   
     2    2    3 1    
     3    3    4 ar   
     4    4    5 1    
     5    4    6 ar   
     6    6    7 1    
     7    6    8 ar   
     8    8    9 ar   
     9    9   10 1    
    10    9   11 ar   
    11   11   12 1    
    12   11    3 ar   
    13    8   13 1    
    14   13   14 2    
    15   13   15 2    
    16   13   16 1    
    17   16   17 1    
    18   16   18 1    
    19    2   19 ar   
    20   19   20 1    
    21   19   21 ar   
    22   21   22 ar   
    23   22   23 ar   
    24   23   24 1    
    25   23    1 ar   
    26   22   25 1    
    27   21   26 1    
    28    1   27 1    
    29   27   28 ar   
    30   28   29 1    
    31   28   30 ar   
    32   30   31 ar   
    33   31   32 ar   
    34   32   33 1    
    35   32   34 ar   
    36   34   35 1    
    37   34   27 ar   
    38   31   36 1    
    39   30   37 1    
    40   37   38 1    
    41   37   39 1    
    42   37   40 1    
@<TRIPOS>SUBSTRUCTURE
     1 ****        1 TEMP              0 ****  ****    0 ROOT 
@<TRIPOS>SET
UNITY_3DHIT     STATIC     ATOMS    <user>   **** Atoms matching 3D or FLEX Search
0
