#	Name:			7-21g
#	Creating user name:	jeff
#	Creation time:		Fri Dec 13 09:51:55 2002

#	Modifying user name:	jeff
#	Modification time:	Fri Dec 13 09:51:58 2002

@<TRIPOS>MOLECULE
7-21g
   44    46     1     0     1
SMALL
USER_CHARGES
****
From 3DB ct
@<TRIPOS>ATOM
      1 C          26.502000   22.061000   16.473000 C.ar      1 <1>         0.171100 
      2 C          25.605000   21.443000   17.390000 C.ar      1 <1>        -0.255000 
      3 C          24.150000   21.384000   17.159000 C.ar      1 <1>         0.439800 
      4 C          23.521000   22.285000   16.283000 C.ar      1 <1>        -0.350000 
      5 H          24.107000   23.043000   15.764000 H         1 <1>         0.209500 
      6 C          22.142000   22.227000   16.062000 C.ar      1 <1>         0.064700 
      7 H          21.678000   22.933000   15.376000 H         1 <1>         0.182800 
      8 C          21.377000   21.262000   16.719000 C.ar      1 <1>        -0.592300 
      9 C          21.978000   20.365000   17.604000 C.ar      1 <1>        -0.013600 
     10 H          21.390000   19.614000   18.127000 H         1 <1>         0.200400 
     11 C          23.358000   20.429000   17.821000 C.ar      1 <1>        -0.309300 
     12 H          23.817000   19.718000   18.508000 H         1 <1>         0.199100 
     13 S          19.626000   21.215000   16.453000 S.o2      1 <1>         2.461100 
     14 O          19.203000   22.479000   15.877000 O.2       1 <1>        -1.000300 
     15 O          18.969000   20.687000   17.636000 O.2       1 <1>        -0.999500 
     16 N          19.481000   20.049000   15.260000 N.pl3     1 <1>        -1.291900 
     17 H          19.083000   20.443000   14.403000 H         1 <1>         0.477100 
     18 H          18.938000   19.248000   15.590000 H         1 <1>         0.477200 
     19 C          26.121000   20.875000   18.573000 C.ar      1 <1>        -0.257300 
     20 H          25.459000   20.399000   19.294000 H         1 <1>         0.226500 
     21 C          27.482000   20.924000   18.847000 C.ar      1 <1>         0.317100 
     22 C          28.354000   21.533000   17.958000 C.ar      1 <1>         0.384700 
     23 C          27.877000   22.097000   16.782000 C.ar      1 <1>        -0.396000 
     24 H          28.586000   22.560000   16.099000 H         1 <1>         0.261000 
     25 F          29.666000   21.576000   18.228000 F         1 <1>        -0.312000 
     26 F          27.949000   20.381000   19.980000 F         1 <1>        -0.306400 
     27 C          26.052000   22.655000   15.201000 C.ar      1 <1>        -0.117200 
     28 C          26.275000   24.012000   14.925000 C.ar      1 <1>        -0.163400 
     29 H          26.781000   24.631000   15.667000 H         1 <1>         0.193600 
     30 C          25.849000   24.593000   13.717000 C.ar      1 <1>        -0.054600 
     31 C          25.187000   23.801000   12.762000 C.ar      1 <1>         0.356500 
     32 C          24.971000   22.447000   13.027000 C.ar      1 <1>        -0.351300 
     33 H          24.471000   21.793000   12.317000 H         1 <1>         0.181700 
     34 C          25.401000   21.881000   14.232000 C.ar      1 <1>        -0.090100 
     35 H          25.221000   20.822000   14.408000 H         1 <1>         0.164100 
     36 O          24.802000   24.445000   11.615000 O.3       1 <1>        -0.360000 
     37 C          24.059000   23.688000   10.662000 C.3       1 <1>         0.023300 
     38 H          23.800000   24.355000    9.835000 H         1 <1>         0.093600 
     39 H          23.124000   23.317000   11.096000 H         1 <1>         0.058200 
     40 H          24.662000   22.870000   10.255000 H         1 <1>         0.062400 
     41 C          26.104000   26.056000   13.469000 C.3       1 <1>        -0.216600 
     42 H          26.731000   26.185000   12.581000 H         1 <1>         0.077100 
     43 H          26.622000   26.523000   14.312000 H         1 <1>         0.076300 
     44 H          25.157000   26.586000   13.327000 H         1 <1>         0.077900 
@<TRIPOS>BOND
     1    1    2 ar   
     2    2    3 1    
     3    3    4 ar   
     4    4    5 1    
     5    4    6 ar   
     6    6    7 1    
     7    6    8 ar   
     8    8    9 ar   
     9    9   10 1    
    10    9   11 ar   
    11   11   12 1    
    12   11    3 ar   
    13    8   13 1    
    14   13   14 2    
    15   13   15 2    
    16   13   16 1    
    17   16   17 1    
    18   16   18 1    
    19    2   19 ar   
    20   19   20 1    
    21   19   21 ar   
    22   21   22 ar   
    23   22   23 ar   
    24   23   24 1    
    25   23    1 ar   
    26   22   25 1    
    27   21   26 1    
    28    1   27 1    
    29   27   28 ar   
    30   28   29 1    
    31   28   30 ar   
    32   30   31 ar   
    33   31   32 ar   
    34   32   33 1    
    35   32   34 ar   
    36   34   35 1    
    37   34   27 ar   
    38   31   36 1    
    39   36   37 1    
    40   37   38 1    
    41   37   39 1    
    42   37   40 1    
    43   30   41 1    
    44   41   42 1    
    45   41   43 1    
    46   41   44 1    
@<TRIPOS>SUBSTRUCTURE
     1 ****        1 TEMP              0 ****  ****    0 ROOT 
@<TRIPOS>SET
UNITY_3DHIT     STATIC     ATOMS    <user>   **** Atoms matching 3D or FLEX Search
0
