#	Name:			7-21i
#	Creating user name:	jeff
#	Creation time:		Fri Dec 13 09:52:00 2002

#	Modifying user name:	jeff
#	Modification time:	Fri Dec 13 09:52:03 2002

@<TRIPOS>MOLECULE
7-21i
   43    46     1     0     1
SMALL
USER_CHARGES
****
From 3DB ct
@<TRIPOS>ATOM
      1 C          26.505000   22.062000   16.473000 C.ar      1 <1>         0.131200 
      2 C          25.610000   21.443000   17.391000 C.ar      1 <1>        -0.220700 
      3 C          24.156000   21.389000   17.163000 C.ar      1 <1>         0.425300 
      4 C          23.532000   22.288000   16.281000 C.ar      1 <1>        -0.366900 
      5 H          24.121000   23.041000   15.758000 H         1 <1>         0.222100 
      6 C          22.154000   22.231000   16.056000 C.ar      1 <1>         0.082100 
      7 H          21.691000   22.933000   15.365000 H         1 <1>         0.174800 
      8 C          21.384000   21.270000   16.716000 C.ar      1 <1>        -0.593800 
      9 C          21.980000   20.377000   17.607000 C.ar      1 <1>         0.009300 
     10 H          21.389000   19.629000   18.131000 H         1 <1>         0.193200 
     11 C          23.360000   20.439000   17.827000 C.ar      1 <1>        -0.321800 
     12 H          23.816000   19.732000   18.519000 H         1 <1>         0.201800 
     13 S          19.637000   21.219000   16.429000 S.o2      1 <1>         2.448000 
     14 O          19.222000   22.484000   15.848000 O.2       1 <1>        -0.994700 
     15 O          18.966000   20.688000   17.602000 O.2       1 <1>        -0.995200 
     16 N          19.507000   20.052000   15.234000 N.pl3     1 <1>        -1.303800 
     17 H          19.114000   20.444000   14.375000 H         1 <1>         0.482000 
     18 H          18.963000   19.249000   15.561000 H         1 <1>         0.484000 
     19 C          26.129000   20.870000   18.570000 C.ar      1 <1>        -0.271500 
     20 H          25.470000   20.392000   19.290000 H         1 <1>         0.231300 
     21 C          27.492000   20.916000   18.837000 C.ar      1 <1>         0.323200 
     22 C          28.361000   21.527000   17.948000 C.ar      1 <1>         0.389500 
     23 C          27.881000   22.096000   16.774000 C.ar      1 <1>        -0.393800 
     24 H          28.587000   22.562000   16.091000 H         1 <1>         0.266400 
     25 F          29.675000   21.569000   18.214000 F         1 <1>        -0.313900 
     26 F          27.963000   20.367000   19.966000 F         1 <1>        -0.306900 
     27 C          26.046000   22.657000   15.206000 C.ar      1 <1>         0.003500 
     28 C          26.265000   24.017000   14.931000 C.ar      1 <1>        -0.374800 
     29 H          26.783000   24.643000   15.656000 H         1 <1>         0.249400 
     30 C          25.822000   24.579000   13.733000 C.ar      1 <1>         0.263300 
     31 C          25.137000   23.794000   12.801000 C.ar      1 <1>         0.251900 
     32 C          24.933000   22.440000   13.048000 C.ar      1 <1>        -0.313900 
     33 H          24.412000   21.820000   12.321000 H         1 <1>         0.222400 
     34 C          25.384000   21.875000   14.244000 C.ar      1 <1>        -0.118300 
     35 H          25.209000   20.815000   14.425000 H         1 <1>         0.161600 
     36 O          24.645000   24.287000   11.621000 O.3       1 <1>        -0.418100 
     37 C          24.591000   25.723000   11.633000 C.3       1 <1>         0.082400 
     38 H          23.728000   26.031000   12.235000 H         1 <1>         0.080400 
     39 H          24.427000   26.056000   10.603000 H         1 <1>         0.094200 
     40 C          25.886000   26.303000   12.177000 C.3       1 <1>         0.088200 
     41 H          26.752000   25.970000   11.593000 H         1 <1>         0.079200 
     42 H          25.852000   27.397000   12.148000 H         1 <1>         0.095200 
     43 O          26.085000   25.912000   13.545000 O.3       1 <1>        -0.427700 
@<TRIPOS>BOND
     1    1    2 ar   
     2    2    3 1    
     3    3    4 ar   
     4    4    5 1    
     5    4    6 ar   
     6    6    7 1    
     7    6    8 ar   
     8    8    9 ar   
     9    9   10 1    
    10    9   11 ar   
    11   11   12 1    
    12   11    3 ar   
    13    8   13 1    
    14   13   14 2    
    15   13   15 2    
    16   13   16 1    
    17   16   17 1    
    18   16   18 1    
    19    2   19 ar   
    20   19   20 1    
    21   19   21 ar   
    22   21   22 ar   
    23   22   23 ar   
    24   23   24 1    
    25   23    1 ar   
    26   22   25 1    
    27   21   26 1    
    28    1   27 1    
    29   27   28 ar   
    30   28   29 1    
    31   28   30 ar   
    32   30   31 ar   
    33   31   32 ar   
    34   32   33 1    
    35   32   34 ar   
    36   34   35 1    
    37   34   27 ar   
    38   31   36 1    
    39   36   37 1    
    40   37   38 1    
    41   37   39 1    
    42   37   40 1    
    43   40   41 1    
    44   40   42 1    
    45   40   43 1    
    46   43   30 1    
@<TRIPOS>SUBSTRUCTURE
     1 ****        1 TEMP              0 ****  ****    0 ROOT 
@<TRIPOS>SET
UNITY_3DHIT     STATIC     ATOMS    <user>   **** Atoms matching 3D or FLEX Search
0
