#	Name:			7-32
#	Creating user name:	jeff
#	Creation time:		Fri Dec 13 09:52:19 2002

#	Modifying user name:	jeff
#	Modification time:	Fri Dec 13 09:52:21 2002

@<TRIPOS>MOLECULE
7-32
   41    44     1     0     1
SMALL
USER_CHARGES
****
From 3DB ct
@<TRIPOS>ATOM
      1 C          26.507000   22.064000   16.474000 C.ar      1 <1>         0.017100 
      2 C          25.610000   21.440000   17.398000 C.ar      1 <1>        -0.126000 
      3 C          24.156000   21.387000   17.165000 C.ar      1 <1>         0.332200 
      4 C          23.536000   22.287000   16.282000 C.ar      1 <1>        -0.257500 
      5 H          24.128000   23.040000   15.763000 H         1 <1>         0.181400 
      6 C          22.158000   22.234000   16.055000 C.ar      1 <1>        -0.043000 
      7 H          21.701000   22.943000   15.368000 H         1 <1>         0.200300 
      8 C          21.388000   21.271000   16.711000 C.ar      1 <1>        -0.512400 
      9 C          21.981000   20.377000   17.604000 C.ar      1 <1>        -0.042500 
     10 H          21.389000   19.629000   18.127000 H         1 <1>         0.190400 
     11 C          23.359000   20.438000   17.827000 C.ar      1 <1>        -0.300500 
     12 H          23.814000   19.731000   18.521000 H         1 <1>         0.201300 
     13 S          19.634000   21.219000   16.428000 S.o2      1 <1>         2.209100 
     14 O          19.233000   22.516000   15.893000 O.2       1 <1>        -0.976200 
     15 O          18.990000   20.741000   17.648000 O.2       1 <1>        -0.978100 
     16 C          19.446000   19.986000   15.167000 C.3       1 <1>        -0.728200 
     17 H          18.382000   19.891000   14.942000 H         1 <1>         0.236100 
     18 H          19.833000   19.035000   15.539000 H         1 <1>         0.191000 
     19 H          19.987000   20.303000   14.274000 H         1 <1>         0.189700 
     20 C          26.121000   20.861000   18.579000 C.ar      1 <1>        -0.344400 
     21 H          25.463000   20.381000   19.299000 H         1 <1>         0.252900 
     22 C          27.478000   20.918000   18.813000 C.ar      1 <1>         0.244400 
     23 C          28.336000   21.523000   17.931000 C.ar      1 <1>         0.309500 
     24 C          27.888000   22.102000   16.764000 C.ar      1 <1>        -0.410000 
     25 H          28.592000   22.569000   16.080000 H         1 <1>         0.263400 
     26 O          29.631000   21.471000   18.346000 O.3       1 <1>        -0.421100 
     27 C          29.492000   20.754000   19.596000 C.3       1 <1>         0.300400 
     28 H          30.085000   19.834000   19.541000 H         1 <1>         0.086800 
     29 H          29.882000   21.382000   20.405000 H         1 <1>         0.090800 
     30 O          28.120000   20.406000   19.897000 O.3       1 <1>        -0.410300 
     31 C          26.042000   22.658000   15.207000 C.ar      1 <1>         0.060900 
     32 C          26.258000   24.020000   14.931000 C.ar      1 <1>        -0.140900 
     33 H          26.765000   24.654000   15.658000 H         1 <1>         0.191800 
     34 C          25.820000   24.581000   13.729000 C.ar      1 <1>        -0.386600 
     35 H          25.986000   25.634000   13.521000 H         1 <1>         0.231900 
     36 C          25.170000   23.783000   12.796000 C.ar      1 <1>         0.569200 
     37 C          24.949000   22.434000   13.041000 C.ar      1 <1>        -0.410700 
     38 H          24.442000   21.823000   12.300000 H         1 <1>         0.232700 
     39 C          25.386000   21.873000   14.243000 C.ar      1 <1>        -0.092600 
     40 H          25.211000   20.814000   14.426000 H         1 <1>         0.162200 
     41 F          24.753000   24.321000   11.642000 F         1 <1>        -0.364900 
@<TRIPOS>BOND
     1    1    2 ar   
     2    2    3 1    
     3    3    4 ar   
     4    4    5 1    
     5    4    6 ar   
     6    6    7 1    
     7    6    8 ar   
     8    8    9 ar   
     9    9   10 1    
    10    9   11 ar   
    11   11   12 1    
    12   11    3 ar   
    13    8   13 1    
    14   13   14 2    
    15   13   15 2    
    16   13   16 1    
    17   16   17 1    
    18   16   18 1    
    19   16   19 1    
    20    2   20 ar   
    21   20   21 1    
    22   20   22 ar   
    23   22   23 ar   
    24   23   24 ar   
    25   24   25 1    
    26   24    1 ar   
    27   23   26 1    
    28   26   27 1    
    29   27   28 1    
    30   27   29 1    
    31   27   30 1    
    32   30   22 1    
    33    1   31 1    
    34   31   32 ar   
    35   32   33 1    
    36   32   34 ar   
    37   34   35 1    
    38   34   36 ar   
    39   36   37 ar   
    40   37   38 1    
    41   37   39 ar   
    42   39   40 1    
    43   39   31 ar   
    44   36   41 1    
@<TRIPOS>SUBSTRUCTURE
     1 ****        1 TEMP              0 ****  ****    0 ROOT 
@<TRIPOS>SET
UNITY_3DHIT     STATIC     ATOMS    <user>   **** Atoms matching 3D or FLEX Search
0
