#	Name:			7-34
#	Creating user name:	jeff
#	Creation time:		Fri Dec 13 09:52:21 2002

#	Modifying user name:	jeff
#	Modification time:	Fri Dec 13 09:52:23 2002

@<TRIPOS>MOLECULE
7-34
   38    40     1     0     1
SMALL
USER_CHARGES
****
From 3DB ct
@<TRIPOS>ATOM
      1 C          26.505000   22.052000   16.471000 C.ar      1 <1>        -0.308300 
      2 C          25.615000   21.447000   17.396000 C.ar      1 <1>        -0.421200 
      3 C          24.165000   21.392000   17.161000 C.ar      1 <1>         0.663400 
      4 C          23.549000   22.292000   16.275000 C.ar      1 <1>        -0.434900 
      5 H          24.142000   23.044000   15.755000 H         1 <1>         0.235200 
      6 C          22.172000   22.238000   16.044000 C.ar      1 <1>         0.022800 
      7 H          21.717000   22.946000   15.355000 H         1 <1>         0.195100 
      8 C          21.400000   21.276000   16.699000 C.ar      1 <1>        -0.558200 
      9 C          21.991000   20.379000   17.591000 C.ar      1 <1>         0.052200 
     10 H          21.397000   19.630000   18.112000 H         1 <1>         0.190200 
     11 C          23.369000   20.439000   17.818000 C.ar      1 <1>        -0.473700 
     12 H          23.821000   19.730000   18.511000 H         1 <1>         0.253400 
     13 S          19.645000   21.225000   16.416000 S.o2      1 <1>         2.218300 
     14 O          19.243000   22.521000   15.881000 O.2       1 <1>        -0.971500 
     15 O          19.003000   20.748000   17.637000 O.2       1 <1>        -0.973300 
     16 C          19.457000   19.992000   15.155000 C.3       1 <1>        -0.731600 
     17 H          18.391000   19.885000   14.945000 H         1 <1>         0.240300 
     18 H          19.861000   19.046000   15.522000 H         1 <1>         0.191600 
     19 H          19.983000   20.318000   14.256000 H         1 <1>         0.190400 
     20 C          26.142000   20.892000   18.578000 C.ar      1 <1>         0.399500 
     21 C          27.504000   20.931000   18.852000 C.ar      1 <1>         0.222300 
     22 C          28.371000   21.525000   17.953000 C.ar      1 <1>         0.220900 
     23 C          27.879000   22.077000   16.776000 C.ar      1 <1>         0.390200 
     24 F          28.745000   22.643000   15.918000 F         1 <1>        -0.293000 
     25 F          29.686000   21.568000   18.215000 F         1 <1>        -0.244700 
     26 F          27.977000   20.395000   19.988000 F         1 <1>        -0.245400 
     27 F          25.321000   20.313000   19.471000 F         1 <1>        -0.291100 
     28 C          26.035000   22.648000   15.210000 C.ar      1 <1>         0.344800 
     29 C          26.252000   24.010000   14.938000 C.ar      1 <1>        -0.249800 
     30 H          26.773000   24.639000   15.658000 H         1 <1>         0.229600 
     31 C          25.798000   24.579000   13.745000 C.ar      1 <1>        -0.349600 
     32 H          25.966000   25.632000   13.540000 H         1 <1>         0.236100 
     33 C          25.129000   23.788000   12.820000 C.ar      1 <1>         0.563000 
     34 C          24.903000   22.439000   13.064000 C.ar      1 <1>        -0.368800 
     35 H          24.377000   21.835000   12.330000 H         1 <1>         0.234600 
     36 C          25.356000   21.869000   14.257000 C.ar      1 <1>        -0.235100 
     37 H          25.173000   20.811000   14.439000 H         1 <1>         0.214100 
     38 F          24.697000   24.333000   11.675000 F         1 <1>        -0.357600 
@<TRIPOS>BOND
     1    1    2 ar   
     2    2    3 1    
     3    3    4 ar   
     4    4    5 1    
     5    4    6 ar   
     6    6    7 1    
     7    6    8 ar   
     8    8    9 ar   
     9    9   10 1    
    10    9   11 ar   
    11   11   12 1    
    12   11    3 ar   
    13    8   13 1    
    14   13   14 2    
    15   13   15 2    
    16   13   16 1    
    17   16   17 1    
    18   16   18 1    
    19   16   19 1    
    20    2   20 ar   
    21   20   21 ar   
    22   21   22 ar   
    23   22   23 ar   
    24   23    1 ar   
    25   23   24 1    
    26   22   25 1    
    27   21   26 1    
    28   20   27 1    
    29    1   28 1    
    30   28   29 ar   
    31   29   30 1    
    32   29   31 ar   
    33   31   32 1    
    34   31   33 ar   
    35   33   34 ar   
    36   34   35 1    
    37   34   36 ar   
    38   36   37 1    
    39   36   28 ar   
    40   33   38 1    
@<TRIPOS>SUBSTRUCTURE
     1 ****        1 TEMP              0 ****  ****    0 ROOT 
@<TRIPOS>SET
UNITY_3DHIT     STATIC     ATOMS    <user>   **** Atoms matching 3D or FLEX Search
0
