#	Name:			7-36
#	Creating user name:	jeff
#	Creation time:		Fri Dec 13 09:52:23 2002

#	Modifying user name:	jeff
#	Modification time:	Fri Dec 13 09:52:25 2002

@<TRIPOS>MOLECULE
7-36
   44    47     1     0     1
SMALL
USER_CHARGES
****
From 3DB ct
@<TRIPOS>ATOM
      1 C          26.505000   22.035000   16.464000 C.ar      1 <1>         0.082200 
      2 C          25.613000   21.466000   17.405000 C.ar      1 <1>        -0.112300 
      3 C          24.159000   21.415000   17.179000 C.ar      1 <1>         0.252100 
      4 C          23.541000   22.299000   16.278000 C.ar      1 <1>        -0.225700 
      5 H          24.137000   23.039000   15.744000 H         1 <1>         0.173100 
      6 C          22.166000   22.233000   16.037000 C.ar      1 <1>        -0.037200 
      7 H          21.714000   22.921000   15.326000 H         1 <1>         0.195700 
      8 C          21.396000   21.276000   16.702000 C.ar      1 <1>        -0.517900 
      9 C          21.985000   20.404000   17.620000 C.ar      1 <1>        -0.054000 
     10 H          21.390000   19.663000   18.151000 H         1 <1>         0.188000 
     11 C          23.361000   20.475000   17.853000 C.ar      1 <1>        -0.253400 
     12 H          23.814000   19.783000   18.563000 H         1 <1>         0.186100 
     13 S          19.647000   21.180000   16.400000 S.o2      1 <1>         2.219300 
     14 O          19.216000   22.454000   15.832000 O.2       1 <1>        -0.981700 
     15 O          19.006000   20.714000   17.626000 O.2       1 <1>        -0.982600 
     16 C          19.504000   19.921000   15.159000 C.3       1 <1>        -0.721400 
     17 H          18.444000   19.788000   14.931000 H         1 <1>         0.232000 
     18 H          19.919000   18.989000   15.547000 H         1 <1>         0.189500 
     19 H          20.040000   20.242000   14.263000 H         1 <1>         0.187100 
     20 C          26.133000   20.914000   18.593000 C.ar      1 <1>        -0.282900 
     21 H          25.444000   20.474000   19.316000 H         1 <1>         0.199200 
     22 C          27.510000   20.906000   18.865000 C.ar      1 <1>         0.141300 
     23 C          28.400000   21.465000   17.926000 C.ar      1 <1>         0.184700 
     24 C          27.887000   22.021000   16.742000 C.ar      1 <1>        -0.360100 
     25 H          28.575000   22.461000   16.018000 H         1 <1>         0.210400 
     26 C          29.779000   21.456000   18.195000 C.ar      1 <1>        -0.266100 
     27 H          30.483000   21.884000   17.483000 H         1 <1>         0.176200 
     28 C          30.271000   20.900000   19.378000 C.ar      1 <1>        -0.116800 
     29 H          31.342000   20.899000   19.573000 H         1 <1>         0.150800 
     30 C          29.392000   20.348000   20.305000 C.ar      1 <1>        -0.117100 
     31 H          29.774000   19.915000   21.228000 H         1 <1>         0.150100 
     32 C          28.020000   20.351000   20.051000 C.ar      1 <1>        -0.257700 
     33 H          27.348000   19.914000   20.789000 H         1 <1>         0.177300 
     34 C          26.040000   22.649000   15.206000 C.ar      1 <1>        -0.042900 
     35 C          26.266000   24.012000   14.941000 C.ar      1 <1>        -0.080500 
     36 H          26.800000   24.629000   15.664000 H         1 <1>         0.172400 
     37 C          25.811000   24.596000   13.757000 C.ar      1 <1>        -0.406400 
     38 H          25.984000   25.651000   13.561000 H         1 <1>         0.232200 
     39 C          25.132000   23.819000   12.828000 C.ar      1 <1>         0.573200 
     40 C          24.904000   22.468000   13.058000 C.ar      1 <1>        -0.408000 
     41 H          24.373000   21.874000   12.319000 H         1 <1>         0.228000 
     42 C          25.358000   21.885000   14.243000 C.ar      1 <1>        -0.063900 
     43 H          25.168000   20.826000   14.418000 H         1 <1>         0.155600 
     44 F          24.693000   24.379000   11.693000 F         1 <1>        -0.367600 
@<TRIPOS>BOND
     1    1    2 ar   
     2    2    3 1    
     3    3    4 ar   
     4    4    5 1    
     5    4    6 ar   
     6    6    7 1    
     7    6    8 ar   
     8    8    9 ar   
     9    9   10 1    
    10    9   11 ar   
    11   11   12 1    
    12   11    3 ar   
    13    8   13 1    
    14   13   14 2    
    15   13   15 2    
    16   13   16 1    
    17   16   17 1    
    18   16   18 1    
    19   16   19 1    
    20    2   20 ar   
    21   20   21 1    
    22   20   22 ar   
    23   22   23 ar   
    24   23   24 ar   
    25   24   25 1    
    26   24    1 ar   
    27   23   26 ar   
    28   26   27 1    
    29   26   28 ar   
    30   28   29 1    
    31   28   30 ar   
    32   30   31 1    
    33   30   32 ar   
    34   32   33 1    
    35   32   22 ar   
    36    1   34 1    
    37   34   35 ar   
    38   35   36 1    
    39   35   37 ar   
    40   37   38 1    
    41   37   39 ar   
    42   39   40 ar   
    43   40   41 1    
    44   40   42 ar   
    45   42   43 1    
    46   42   34 ar   
    47   39   44 1    
@<TRIPOS>SUBSTRUCTURE
     1 ****        1 TEMP              0 ****  ****    0 ROOT 
@<TRIPOS>SET
UNITY_3DHIT     STATIC     ATOMS    <user>   **** Atoms matching 3D or FLEX Search
0
