#	Name:			7-39
#	Creating user name:	jeff
#	Creation time:		Fri Dec 13 09:59:16 2002

#	Modifying user name:	jeff
#	Modification time:	Fri Dec 13 09:59:18 2002

@<TRIPOS>MOLECULE
7-39
   36    38     1     0     1
SMALL
USER_CHARGES
****
From 3DB ct
@<TRIPOS>ATOM
      1 C          26.486000   22.072000   16.474000 C.ar      1 <1>         0.442100 
      2 C          25.580000   21.451000   17.358000 C.ar      1 <1>         0.216000 
      3 C          24.119000   21.387000   17.160000 C.ar      1 <1>         0.013200 
      4 C          23.451000   22.273000   16.295000 C.ar      1 <1>        -0.109700 
      5 H          24.005000   23.040000   15.753000 H         1 <1>         0.132100 
      6 C          22.066000   22.200000   16.112000 C.ar      1 <1>        -0.074100 
      7 H          21.579000   22.896000   15.431000 H         1 <1>         0.195000 
      8 C          21.327000   21.243000   16.810000 C.ar      1 <1>        -0.482300 
      9 C          21.963000   20.355000   17.677000 C.ar      1 <1>        -0.002800 
     10 H          21.398000   19.604000   18.224000 H         1 <1>         0.172600 
     11 C          23.348000   20.435000   17.853000 C.ar      1 <1>        -0.189100 
     12 H          23.832000   19.739000   18.539000 H         1 <1>         0.186900 
     13 S          19.569000   21.137000   16.562000 S.o2      1 <1>         2.167400 
     14 O          19.086000   22.460000   16.176000 O.2       1 <1>        -0.965400 
     15 O          18.989000   20.504000   17.743000 O.2       1 <1>        -0.967500 
     16 C          19.403000   20.041000   15.179000 C.3       1 <1>        -0.704000 
     17 H          18.339000   19.930000   14.960000 H         1 <1>         0.236400 
     18 H          19.831000   19.071000   15.440000 H         1 <1>         0.182400 
     19 H          19.916000   20.474000   14.318000 H         1 <1>         0.180100 
     20 N          26.011000   20.862000   18.515000 N.ar      1 <1>        -0.476000 
     21 C          27.340000   20.929000   18.769000 C.ar      1 <1>         0.081000 
     22 H          27.684000   20.464000   19.687000 H         1 <1>         0.151800 
     23 C          28.223000   21.556000   17.914000 C.ar      1 <1>         0.068100 
     24 H          29.284000   21.602000   18.140000 H         1 <1>         0.157400 
     25 N          27.823000   22.137000   16.758000 N.ar      1 <1>        -0.503900 
     26 C          26.121000   22.672000   15.178000 C.ar      1 <1>        -0.321400 
     27 C          26.367000   24.036000   14.929000 C.ar      1 <1>         0.019600 
     28 H          26.826000   24.656000   15.699000 H         1 <1>         0.163900 
     29 C          26.025000   24.619000   13.706000 C.ar      1 <1>        -0.395700 
     30 H          26.214000   25.674000   13.526000 H         1 <1>         0.224100 
     31 C          25.442000   23.840000   12.716000 C.ar      1 <1>         0.611800 
     32 C          25.199000   22.489000   12.924000 C.ar      1 <1>        -0.451000 
     33 H          24.749000   21.891000   12.136000 H         1 <1>         0.234800 
     34 C          25.541000   21.906000   14.148000 C.ar      1 <1>         0.066400 
     35 H          25.355000   20.842000   14.288000 H         1 <1>         0.110400 
     36 F          25.116000   24.397000   11.542000 F         1 <1>        -0.370800 
@<TRIPOS>BOND
     1    1    2 ar   
     2    2    3 1    
     3    3    4 ar   
     4    4    5 1    
     5    4    6 ar   
     6    6    7 1    
     7    6    8 ar   
     8    8    9 ar   
     9    9   10 1    
    10    9   11 ar   
    11   11   12 1    
    12   11    3 ar   
    13    8   13 1    
    14   13   14 2    
    15   13   15 2    
    16   13   16 1    
    17   16   17 1    
    18   16   18 1    
    19   16   19 1    
    20    2   20 ar   
    21   20   21 ar   
    22   21   22 1    
    23   21   23 ar   
    24   23   24 1    
    25   23   25 ar   
    26   25    1 ar   
    27    1   26 1    
    28   26   27 ar   
    29   27   28 1    
    30   27   29 ar   
    31   29   30 1    
    32   29   31 ar   
    33   31   32 ar   
    34   32   33 1    
    35   32   34 ar   
    36   34   35 1    
    37   34   26 ar   
    38   31   36 1    
@<TRIPOS>SUBSTRUCTURE
     1 ****        1 TEMP              0 ****  ****    0 ROOT 
@<TRIPOS>SET
UNITY_3DHIT     STATIC     ATOMS    <user>   **** Atoms matching 3D or FLEX Search
0
