#	Name:			8-10a
#	Creating user name:	jeff
#	Creation time:		Sun Dec 22 15:52:45 2002

#	Modifying user name:	jeff
#	Modification time:	Sun Dec 22 15:52:47 2002

@<TRIPOS>MOLECULE
8-10a
   36    38     1     0     1
SMALL
USER_CHARGES
****
From 3DB ct
@<TRIPOS>ATOM
      1 C          21.248000   21.194000   16.943000 C.ar      1 <1>        -0.682900 
      2 C          21.963000   20.327000   17.771000 C.ar      1 <1>         0.051300 
      3 H          21.449000   19.567000   18.356000 H         1 <1>         0.174100 
      4 C          23.355000   20.439000   17.854000 C.ar      1 <1>        -0.259500 
      5 H          23.888000   19.749000   18.508000 H         1 <1>         0.216800 
      6 C          24.046000   21.405000   17.097000 C.ar      1 <1>         0.504800 
      7 C          23.311000   22.276000   16.281000 C.ar      1 <1>        -0.408000 
      8 H          23.776000   23.081000   15.723000 H         1 <1>         0.172900 
      9 C          21.916000   22.166000   16.198000 C.ar      1 <1>         0.128400 
     10 H          21.366000   22.854000   15.559000 H         1 <1>         0.156900 
     11 N          25.471000   21.489000   17.216000 N.pl3     1 <1>        -0.117400 
     12 C          26.413000   22.146000   16.422000 C.ar      1 <1>        -0.058900 
     13 C          26.212000   22.730000   15.098000 C.ar      1 <1>         0.082500 
     14 C          26.469000   24.092000   14.883000 C.ar      1 <1>        -0.066800 
     15 H          26.795000   24.731000   15.702000 H         1 <1>         0.174400 
     16 C          26.303000   24.649000   13.613000 C.ar      1 <1>        -0.412400 
     17 H          26.495000   25.705000   13.445000 H         1 <1>         0.217000 
     18 C          25.890000   23.843000   12.559000 C.ar      1 <1>         0.561900 
     19 C          25.644000   22.488000   12.749000 C.ar      1 <1>        -0.425400 
     20 H          25.329000   21.871000   11.912000 H         1 <1>         0.221600 
     21 C          25.810000   21.929000   14.018000 C.ar      1 <1>        -0.091300 
     22 H          25.626000   20.865000   14.155000 H         1 <1>         0.177900 
     23 F          25.733000   24.377000   11.341000 F         1 <1>        -0.383900 
     24 C          27.606000   22.062000   17.116000 C.ar      1 <1>        -0.411700 
     25 H          28.559000   22.477000   16.811000 H         1 <1>         0.266300 
     26 C          27.359000   21.259000   18.248000 C.ar      1 <1>         0.337300 
     27 N          26.074000   20.866000   18.276000 N.ar      1 <1>        -0.449400 
     28 C          28.345000   20.860000   19.260000 C.2       1 <1>         0.701800 
     29 O          28.110000   20.137000   20.224000 O.2       1 <1>        -0.904500 
     30 O          29.595000   21.356000   19.063000 O.3       1 <1>        -0.945700 
     31 S          19.488000   21.027000   16.823000 S.o2      1 <1>         2.444900 
     32 O          18.926000   22.286000   16.366000 O.2       1 <1>        -1.020300 
     33 O          18.979000   20.384000   18.021000 O.2       1 <1>        -1.009800 
     34 N          19.323000   19.924000   15.574000 N.pl3     1 <1>        -1.324700 
     35 H          18.823000   20.335000   14.781000 H         1 <1>         0.478200 
     36 H          18.868000   19.066000   15.898000 H         1 <1>         0.481800 
@<TRIPOS>BOND
     1    1    2 ar   
     2    2    3 1    
     3    2    4 ar   
     4    4    5 1    
     5    4    6 ar   
     6    6    7 ar   
     7    7    8 1    
     8    7    9 ar   
     9    9   10 1    
    10    9    1 ar   
    11    6   11 1    
    12   11   12 ar   
    13   12   13 1    
    14   13   14 ar   
    15   14   15 1    
    16   14   16 ar   
    17   16   17 1    
    18   16   18 ar   
    19   18   19 ar   
    20   19   20 1    
    21   19   21 ar   
    22   21   22 1    
    23   21   13 ar   
    24   18   23 1    
    25   12   24 ar   
    26   24   25 1    
    27   24   26 ar   
    28   26   27 ar   
    29   27   11 ar   
    30   26   28 1    
    31   28   29 2    
    32   28   30 1    
    33    1   31 1    
    34   31   32 2    
    35   31   33 2    
    36   31   34 1    
    37   34   35 1    
    38   34   36 1    
@<TRIPOS>SUBSTRUCTURE
     1 ****        1 TEMP              0 ****  ****    0 ROOT 
@<TRIPOS>SET
UNITY_3DHIT     STATIC     ATOMS    <user>   **** Atoms matching 3D or FLEX Search
0
