#	Name:			8-11a
#	Creating user name:	jeff
#	Creation time:		Fri Dec 13 09:54:31 2002

#	Modifying user name:	jeff
#	Modification time:	Fri Dec 13 09:54:33 2002

@<TRIPOS>MOLECULE
8-11a
   39    41     1     0     1
SMALL
USER_CHARGES
****
From 3DB ct
@<TRIPOS>ATOM
      1 C          21.249000   21.183000   16.948000 C.ar      1 <1>        -0.625100 
      2 C          21.966000   20.319000   17.775000 C.ar      1 <1>         0.058000 
      3 H          21.459000   19.557000   18.362000 H         1 <1>         0.187100 
      4 C          23.358000   20.436000   17.856000 C.ar      1 <1>        -0.203700 
      5 H          23.892000   19.747000   18.509000 H         1 <1>         0.188800 
      6 C          24.047000   21.404000   17.099000 C.ar      1 <1>         0.325600 
      7 C          23.309000   22.273000   16.284000 C.ar      1 <1>        -0.313600 
      8 H          23.770000   23.081000   15.726000 H         1 <1>         0.166300 
      9 C          21.915000   22.158000   16.201000 C.ar      1 <1>         0.105800 
     10 H          21.358000   22.843000   15.565000 H         1 <1>         0.178600 
     11 N          25.472000   21.491000   17.217000 N.pl3     1 <1>        -0.002000 
     12 C          26.413000   22.145000   16.422000 C.ar      1 <1>         0.131900 
     13 C          26.211000   22.730000   15.098000 C.ar      1 <1>        -0.070500 
     14 C          26.469000   24.092000   14.883000 C.ar      1 <1>        -0.013700 
     15 H          26.796000   24.730000   15.703000 H         1 <1>         0.166900 
     16 C          26.300000   24.650000   13.614000 C.ar      1 <1>        -0.423400 
     17 H          26.493000   25.706000   13.447000 H         1 <1>         0.235300 
     18 C          25.885000   23.844000   12.560000 C.ar      1 <1>         0.630900 
     19 C          25.639000   22.490000   12.750000 C.ar      1 <1>        -0.434600 
     20 H          25.321000   21.873000   11.914000 H         1 <1>         0.240300 
     21 C          25.807000   21.930000   14.018000 C.ar      1 <1>        -0.042600 
     22 H          25.622000   20.865000   14.155000 H         1 <1>         0.168600 
     23 F          25.725000   24.380000   11.343000 F         1 <1>        -0.369400 
     24 C          27.608000   22.060000   17.112000 C.ar      1 <1>        -0.449200 
     25 H          28.561000   22.473000   16.804000 H         1 <1>         0.271000 
     26 C          27.362000   21.260000   18.248000 C.ar      1 <1>         0.047600 
     27 N          26.076000   20.871000   18.279000 N.ar      1 <1>        -0.339500 
     28 C          28.352000   20.862000   19.259000 C.2       1 <1>         0.882500 
     29 O          28.094000   20.138000   20.224000 O.2       1 <1>        -0.609700 
     30 O          29.616000   21.381000   19.012000 O.3       1 <1>        -0.374200 
     31 N          30.609000   20.995000   20.043000 N.3       1 <1>        -0.493400 
     32 H          31.180000   20.333000   19.503000 H         1 <1>         0.323700 
     33 H          30.057000   20.375000   20.657000 H         1 <1>         0.335900 
     34 S          19.489000   21.039000   16.812000 S.o2      1 <1>         2.425500 
     35 O          18.933000   22.297000   16.345000 O.2       1 <1>        -0.990400 
     36 O          18.975000   20.407000   18.014000 O.2       1 <1>        -0.984000 
     37 N          19.320000   19.942000   15.558000 N.pl3     1 <1>        -1.304200 
     38 H          18.835000   20.364000   14.761000 H         1 <1>         0.484900 
     39 H          18.848000   19.090000   15.873000 H         1 <1>         0.487900 
@<TRIPOS>BOND
     1    1    2 ar   
     2    2    3 1    
     3    2    4 ar   
     4    4    5 1    
     5    4    6 ar   
     6    6    7 ar   
     7    7    8 1    
     8    7    9 ar   
     9    9   10 1    
    10    9    1 ar   
    11    6   11 1    
    12   11   12 ar   
    13   12   13 1    
    14   13   14 ar   
    15   14   15 1    
    16   14   16 ar   
    17   16   17 1    
    18   16   18 ar   
    19   18   19 ar   
    20   19   20 1    
    21   19   21 ar   
    22   21   22 1    
    23   21   13 ar   
    24   18   23 1    
    25   12   24 ar   
    26   24   25 1    
    27   24   26 ar   
    28   26   27 ar   
    29   27   11 ar   
    30   26   28 1    
    31   28   29 2    
    32   28   30 1    
    33   30   31 1    
    34   31   32 1    
    35   31   33 1    
    36    1   34 1    
    37   34   35 2    
    38   34   36 2    
    39   34   37 1    
    40   37   38 1    
    41   37   39 1    
@<TRIPOS>SUBSTRUCTURE
     1 ****        1 TEMP              0 ****  ****    0 ROOT 
@<TRIPOS>SET
UNITY_3DHIT     STATIC     ATOMS    <user>   **** Atoms matching 3D or FLEX Search
0
