#	Name:			8-13a
#	Creating user name:	jeff
#	Creation time:		Fri Dec 13 09:54:33 2002

#	Modifying user name:	jeff
#	Modification time:	Fri Dec 13 09:54:35 2002

@<TRIPOS>MOLECULE
8-13a
   35    37     1     0     1
SMALL
USER_CHARGES
****
From 3DB ct
@<TRIPOS>ATOM
      1 C          21.250000   21.167000   16.923000 C.ar      1 <1>        -0.645900 
      2 C          21.965000   20.312000   17.763000 C.ar      1 <1>         0.085000 
      3 H          21.456000   19.550000   18.349000 H         1 <1>         0.184000 
      4 C          23.356000   20.432000   17.850000 C.ar      1 <1>        -0.270400 
      5 H          23.889000   19.744000   18.507000 H         1 <1>         0.204000 
      6 C          24.046000   21.399000   17.095000 C.ar      1 <1>         0.443400 
      7 C          23.310000   22.268000   16.279000 C.ar      1 <1>        -0.360200 
      8 H          23.773000   23.078000   15.724000 H         1 <1>         0.183100 
      9 C          21.917000   22.151000   16.190000 C.ar      1 <1>         0.115600 
     10 H          21.363000   22.837000   15.552000 H         1 <1>         0.178800 
     11 N          25.470000   21.489000   17.218000 N.pl3     1 <1>        -0.148700 
     12 C          26.415000   22.149000   16.423000 C.ar      1 <1>         0.175800 
     13 C          26.212000   22.732000   15.099000 C.ar      1 <1>        -0.050000 
     14 C          26.470000   24.093000   14.882000 C.ar      1 <1>        -0.050700 
     15 H          26.798000   24.732000   15.700000 H         1 <1>         0.175300 
     16 C          26.299000   24.649000   13.612000 C.ar      1 <1>        -0.403200 
     17 H          26.492000   25.705000   13.443000 H         1 <1>         0.233700 
     18 C          25.883000   23.842000   12.560000 C.ar      1 <1>         0.619400 
     19 C          25.638000   22.488000   12.751000 C.ar      1 <1>        -0.418000 
     20 H          25.320000   21.871000   11.916000 H         1 <1>         0.238500 
     21 C          25.808000   21.930000   14.020000 C.ar      1 <1>        -0.064700 
     22 H          25.623000   20.865000   14.158000 H         1 <1>         0.178500 
     23 F          25.721000   24.377000   11.342000 F         1 <1>        -0.367200 
     24 C          27.612000   22.067000   17.114000 C.ar      1 <1>        -0.557500 
     25 H          28.564000   22.480000   16.808000 H         1 <1>         0.299100 
     26 C          27.348000   21.271000   18.234000 C.ar      1 <1>         0.422600 
     27 N          26.074000   20.870000   18.283000 N.ar      1 <1>        -0.343100 
     28 C          28.272000   20.849000   19.248000 C.1       1 <1>         0.054600 
     29 N          29.024000   20.506000   20.070000 N.1       1 <1>        -0.238400 
     30 S          19.485000   21.049000   16.829000 S.o2      1 <1>         2.441600 
     31 O          18.944000   22.332000   16.416000 O.2       1 <1>        -0.993700 
     32 O          18.982000   20.388000   18.021000 O.2       1 <1>        -0.988300 
     33 N          19.272000   19.986000   15.553000 N.pl3     1 <1>        -1.303700 
     34 H          18.770000   20.433000   14.781000 H         1 <1>         0.483700 
     35 H          18.800000   19.131000   15.860000 H         1 <1>         0.487100 
@<TRIPOS>BOND
     1    1    2 ar   
     2    2    3 1    
     3    2    4 ar   
     4    4    5 1    
     5    4    6 ar   
     6    6    7 ar   
     7    7    8 1    
     8    7    9 ar   
     9    9   10 1    
    10    9    1 ar   
    11    6   11 1    
    12   11   12 ar   
    13   12   13 1    
    14   13   14 ar   
    15   14   15 1    
    16   14   16 ar   
    17   16   17 1    
    18   16   18 ar   
    19   18   19 ar   
    20   19   20 1    
    21   19   21 ar   
    22   21   22 1    
    23   21   13 ar   
    24   18   23 1    
    25   12   24 ar   
    26   24   25 1    
    27   24   26 ar   
    28   26   27 ar   
    29   27   11 ar   
    30   26   28 1    
    31   28   29 3    
    32    1   30 1    
    33   30   31 2    
    34   30   32 2    
    35   30   33 1    
    36   33   34 1    
    37   33   35 1    
@<TRIPOS>SUBSTRUCTURE
     1 ****        1 TEMP              0 ****  ****    0 ROOT 
@<TRIPOS>SET
UNITY_3DHIT     STATIC     ATOMS    <user>   **** Atoms matching 3D or FLEX Search
0
