#	Name:			8-14a
#	Creating user name:	jeff
#	Creation time:		Fri Dec 13 09:54:35 2002

#	Modifying user name:	jeff
#	Modification time:	Fri Dec 13 09:54:37 2002

@<TRIPOS>MOLECULE
8-14a
   38    40     1     0     1
SMALL
USER_CHARGES
****
From 3DB ct
@<TRIPOS>ATOM
      1 C          21.247000   21.193000   16.943000 C.ar      1 <1>        -0.632600 
      2 C          21.963000   20.327000   17.771000 C.ar      1 <1>         0.071000 
      3 H          21.449000   19.567000   18.356000 H         1 <1>         0.178800 
      4 C          23.355000   20.441000   17.855000 C.ar      1 <1>        -0.261800 
      5 H          23.888000   19.751000   18.508000 H         1 <1>         0.207400 
      6 C          24.045000   21.407000   17.098000 C.ar      1 <1>         0.418400 
      7 C          23.309000   22.277000   16.282000 C.ar      1 <1>        -0.402200 
      8 H          23.774000   23.082000   15.723000 H         1 <1>         0.196900 
      9 C          21.915000   22.166000   16.197000 C.ar      1 <1>         0.132700 
     10 H          21.365000   22.853000   15.558000 H         1 <1>         0.170200 
     11 N          25.471000   21.491000   17.217000 N.pl3     1 <1>         0.025200 
     12 C          26.415000   22.145000   16.422000 C.ar      1 <1>        -0.131400 
     13 C          26.213000   22.730000   15.098000 C.ar      1 <1>         0.394400 
     14 C          26.470000   24.090000   14.883000 C.ar      1 <1>        -0.384300 
     15 H          26.799000   24.727000   15.703000 H         1 <1>         0.208800 
     16 C          26.300000   24.651000   13.614000 C.ar      1 <1>         0.259800 
     17 H          26.497000   25.709000   13.464000 H         1 <1>         0.078600 
     18 C          25.882000   23.850000   12.553000 C.ar      1 <1>        -0.614100 
     19 C          25.637000   22.492000   12.750000 C.ar      1 <1>         0.238500 
     20 H          25.317000   21.861000   11.924000 H         1 <1>         0.086100 
     21 C          25.807000   21.932000   14.019000 C.ar      1 <1>        -0.385300 
     22 H          25.622000   20.867000   14.155000 H         1 <1>         0.205400 
     23 Cl         25.673000   24.539000   10.990000 Cl        1 <1>         0.122200 
     24 C          27.612000   22.053000   17.110000 C.ar      1 <1>        -0.437500 
     25 H          28.567000   22.460000   16.799000 H         1 <1>         0.275000 
     26 C          27.354000   21.259000   18.240000 C.ar      1 <1>         0.386400 
     27 N          26.075000   20.873000   18.282000 N.ar      1 <1>        -0.520700 
     28 C          28.333000   20.826000   19.285000 C.3       1 <1>         0.191900 
     29 H          27.817000   20.607000   20.226000 H         1 <1>         0.045100 
     30 H          29.063000   21.620000   19.470000 H         1 <1>         0.020000 
     31 O          29.045000   19.649000   18.881000 O.3       1 <1>        -0.679100 
     32 H          29.635000   19.448000   19.638000 H         1 <1>         0.428900 
     33 S          19.488000   21.025000   16.819000 S.o2      1 <1>         2.418800 
     34 O          18.925000   22.282000   16.359000 O.2       1 <1>        -0.991200 
     35 O          18.978000   20.384000   18.017000 O.2       1 <1>        -0.985700 
     36 N          19.326000   19.920000   15.570000 N.pl3     1 <1>        -1.310100 
     37 H          18.827000   20.331000   14.777000 H         1 <1>         0.485800 
     38 H          18.871000   19.063000   15.894000 H         1 <1>         0.489500 
@<TRIPOS>BOND
     1    1    2 ar   
     2    2    3 1    
     3    2    4 ar   
     4    4    5 1    
     5    4    6 ar   
     6    6    7 ar   
     7    7    8 1    
     8    7    9 ar   
     9    9   10 1    
    10    9    1 ar   
    11    6   11 1    
    12   11   12 ar   
    13   12   13 1    
    14   13   14 ar   
    15   14   15 1    
    16   14   16 ar   
    17   16   17 1    
    18   16   18 ar   
    19   18   19 ar   
    20   19   20 1    
    21   19   21 ar   
    22   21   22 1    
    23   21   13 ar   
    24   18   23 1    
    25   12   24 ar   
    26   24   25 1    
    27   24   26 ar   
    28   26   27 ar   
    29   27   11 ar   
    30   26   28 1    
    31   28   29 1    
    32   28   30 1    
    33   28   31 1    
    34   31   32 1    
    35    1   33 1    
    36   33   34 2    
    37   33   35 2    
    38   33   36 1    
    39   36   37 1    
    40   36   38 1    
@<TRIPOS>SUBSTRUCTURE
     1 ****        1 TEMP              0 ****  ****    0 ROOT 
@<TRIPOS>SET
UNITY_3DHIT     STATIC     ATOMS    <user>   **** Atoms matching 3D or FLEX Search
0
