#	Name:			8-16a
#	Creating user name:	jeff
#	Creation time:		Fri Dec 13 09:54:37 2002

#	Modifying user name:	jeff
#	Modification time:	Fri Dec 13 09:54:39 2002

@<TRIPOS>MOLECULE
8-16a
   37    39     1     0     1
SMALL
USER_CHARGES
****
From 3DB ct
@<TRIPOS>ATOM
      1 C          21.246000   21.193000   16.943000 C.ar      1 <1>        -0.630800 
      2 C          21.962000   20.326000   17.770000 C.ar      1 <1>         0.060900 
      3 H          21.448000   19.566000   18.356000 H         1 <1>         0.181600 
      4 C          23.354000   20.439000   17.852000 C.ar      1 <1>        -0.244800 
      5 H          23.887000   19.748000   18.506000 H         1 <1>         0.200700 
      6 C          24.045000   21.405000   17.095000 C.ar      1 <1>         0.395200 
      7 C          23.308000   22.275000   16.280000 C.ar      1 <1>        -0.366700 
      8 H          23.773000   23.079000   15.719000 H         1 <1>         0.189100 
      9 C          21.914000   22.165000   16.197000 C.ar      1 <1>         0.119000 
     10 H          21.363000   22.852000   15.558000 H         1 <1>         0.173800 
     11 N          25.470000   21.490000   17.215000 N.pl3     1 <1>         0.018300 
     12 C          26.416000   22.145000   16.422000 C.ar      1 <1>        -0.039900 
     13 C          26.215000   22.730000   15.098000 C.ar      1 <1>         0.165500 
     14 C          26.473000   24.090000   14.882000 C.ar      1 <1>        -0.172800 
     15 H          26.803000   24.727000   15.701000 H         1 <1>         0.169700 
     16 C          26.302000   24.649000   13.614000 C.ar      1 <1>        -0.154600 
     17 H          26.498000   25.708000   13.456000 H         1 <1>         0.157900 
     18 C          25.882000   23.852000   12.550000 C.ar      1 <1>        -0.112800 
     19 H          25.750000   24.289000   11.562000 H         1 <1>         0.150300 
     20 C          25.639000   22.494000   12.751000 C.ar      1 <1>        -0.157900 
     21 H          25.318000   21.870000   11.919000 H         1 <1>         0.159700 
     22 C          25.810000   21.933000   14.018000 C.ar      1 <1>        -0.197500 
     23 H          25.624000   20.868000   14.153000 H         1 <1>         0.170600 
     24 C          27.611000   22.058000   17.114000 C.ar      1 <1>        -0.436200 
     25 H          28.564000   22.469000   16.805000 H         1 <1>         0.264400 
     26 C          27.353000   21.265000   18.245000 C.ar      1 <1>         0.282800 
     27 N          26.074000   20.871000   18.280000 N.ar      1 <1>        -0.493200 
     28 C          28.331000   20.837000   19.287000 C.3       1 <1>         0.280300 
     29 H          29.346000   20.779000   18.882000 H         1 <1>         0.069400 
     30 H          28.064000   19.858000   19.695000 H         1 <1>         0.069200 
     31 F          28.348000   21.731000   20.325000 F         1 <1>        -0.380200 
     32 S          19.486000   21.026000   16.824000 S.o2      1 <1>         2.426200 
     33 O          18.924000   22.285000   16.367000 O.2       1 <1>        -0.993600 
     34 O          18.978000   20.384000   18.023000 O.2       1 <1>        -0.987200 
     35 N          19.320000   19.923000   15.575000 N.pl3     1 <1>        -1.310700 
     36 H          18.817000   20.333000   14.784000 H         1 <1>         0.485400 
     37 H          18.866000   19.065000   15.900000 H         1 <1>         0.488900 
@<TRIPOS>BOND
     1    1    2 ar   
     2    2    3 1    
     3    2    4 ar   
     4    4    5 1    
     5    4    6 ar   
     6    6    7 ar   
     7    7    8 1    
     8    7    9 ar   
     9    9   10 1    
    10    9    1 ar   
    11    6   11 1    
    12   11   12 ar   
    13   12   13 1    
    14   13   14 ar   
    15   14   15 1    
    16   14   16 ar   
    17   16   17 1    
    18   16   18 ar   
    19   18   19 1    
    20   18   20 ar   
    21   20   21 1    
    22   20   22 ar   
    23   22   23 1    
    24   22   13 ar   
    25   12   24 ar   
    26   24   25 1    
    27   24   26 ar   
    28   26   27 ar   
    29   27   11 ar   
    30   26   28 1    
    31   28   29 1    
    32   28   30 1    
    33   28   31 1    
    34    1   32 1    
    35   32   33 2    
    36   32   34 2    
    37   32   35 1    
    38   35   36 1    
    39   35   37 1    
@<TRIPOS>SUBSTRUCTURE
     1 ****        1 TEMP              0 ****  ****    0 ROOT 
@<TRIPOS>SET
UNITY_3DHIT     STATIC     ATOMS    <user>   **** Atoms matching 3D or FLEX Search
0
