#	Name:			8-17a
#	Creating user name:	jeff
#	Creation time:		Fri Dec 13 09:54:39 2002

#	Modifying user name:	jeff
#	Modification time:	Fri Dec 13 09:54:41 2002

@<TRIPOS>MOLECULE
8-17a
   38    40     1     0     1
SMALL
USER_CHARGES
****
From 3DB ct
@<TRIPOS>ATOM
      1 C          21.248000   21.193000   16.941000 C.ar      1 <1>        -0.643100 
      2 C          21.963000   20.328000   17.770000 C.ar      1 <1>         0.085500 
      3 H          21.448000   19.568000   18.355000 H         1 <1>         0.179600 
      4 C          23.354000   20.442000   17.855000 C.ar      1 <1>        -0.276400 
      5 H          23.887000   19.751000   18.508000 H         1 <1>         0.204100 
      6 C          24.045000   21.407000   17.097000 C.ar      1 <1>         0.447800 
      7 C          23.310000   22.277000   16.281000 C.ar      1 <1>        -0.401300 
      8 H          23.775000   23.083000   15.722000 H         1 <1>         0.196300 
      9 C          21.915000   22.166000   16.196000 C.ar      1 <1>         0.134300 
     10 H          21.365000   22.854000   15.556000 H         1 <1>         0.171900 
     11 N          25.470000   21.491000   17.216000 N.pl3     1 <1>        -0.070200 
     12 C          26.416000   22.143000   16.422000 C.ar      1 <1>         0.000700 
     13 C          26.213000   22.729000   15.099000 C.ar      1 <1>         0.328000 
     14 C          26.471000   24.090000   14.884000 C.ar      1 <1>        -0.347500 
     15 H          26.800000   24.727000   15.704000 H         1 <1>         0.205100 
     16 C          26.300000   24.651000   13.615000 C.ar      1 <1>         0.229300 
     17 H          26.498000   25.709000   13.465000 H         1 <1>         0.085200 
     18 C          25.882000   23.850000   12.554000 C.ar      1 <1>        -0.581000 
     19 C          25.637000   22.492000   12.750000 C.ar      1 <1>         0.223400 
     20 H          25.317000   21.861000   11.924000 H         1 <1>         0.088200 
     21 C          25.807000   21.932000   14.019000 C.ar      1 <1>        -0.364700 
     22 H          25.622000   20.867000   14.155000 H         1 <1>         0.200500 
     23 Cl         25.673000   24.540000   10.991000 Cl        1 <1>         0.121100 
     24 C          27.612000   22.053000   17.110000 C.ar      1 <1>        -0.553000 
     25 H          28.565000   22.465000   16.799000 H         1 <1>         0.283500 
     26 C          27.357000   21.252000   18.238000 C.ar      1 <1>         0.426000 
     27 N          26.074000   20.873000   18.282000 N.ar      1 <1>        -0.448700 
     28 C          28.328000   20.828000   19.293000 C.3       1 <1>        -0.188300 
     29 H          28.376000   19.734000   19.343000 H         1 <1>         0.149400 
     30 H          27.980000   21.175000   20.273000 H         1 <1>         0.153000 
     31 C          29.666000   21.375000   19.016000 C.1       1 <1>         0.140500 
     32 N          30.731000   21.803000   18.814000 N.1       1 <1>        -0.295900 
     33 S          19.488000   21.024000   16.821000 S.o2      1 <1>         2.425600 
     34 O          18.925000   22.282000   16.364000 O.2       1 <1>        -0.990300 
     35 O          18.980000   20.379000   18.018000 O.2       1 <1>        -0.985700 
     36 N          19.324000   19.920000   15.572000 N.pl3     1 <1>        -1.306400 
     37 H          18.822000   20.330000   14.780000 H         1 <1>         0.485000 
     38 H          18.872000   19.061000   15.896000 H         1 <1>         0.488500 
@<TRIPOS>BOND
     1    1    2 ar   
     2    2    3 1    
     3    2    4 ar   
     4    4    5 1    
     5    4    6 ar   
     6    6    7 ar   
     7    7    8 1    
     8    7    9 ar   
     9    9   10 1    
    10    9    1 ar   
    11    6   11 1    
    12   11   12 ar   
    13   12   13 1    
    14   13   14 ar   
    15   14   15 1    
    16   14   16 ar   
    17   16   17 1    
    18   16   18 ar   
    19   18   19 ar   
    20   19   20 1    
    21   19   21 ar   
    22   21   22 1    
    23   21   13 ar   
    24   18   23 1    
    25   12   24 ar   
    26   24   25 1    
    27   24   26 ar   
    28   26   27 ar   
    29   27   11 ar   
    30   26   28 1    
    31   28   29 1    
    32   28   30 1    
    33   28   31 1    
    34   31   32 3    
    35    1   33 1    
    36   33   34 2    
    37   33   35 2    
    38   33   36 1    
    39   36   37 1    
    40   36   38 1    
@<TRIPOS>SUBSTRUCTURE
     1 ****        1 TEMP              0 ****  ****    0 ROOT 
@<TRIPOS>SET
UNITY_3DHIT     STATIC     ATOMS    <user>   **** Atoms matching 3D or FLEX Search
0
