#	Name:			8-19
#	Creating user name:	jeff
#	Creation time:		Fri Dec 13 09:54:41 2002

#	Modifying user name:	jeff
#	Modification time:	Fri Dec 13 09:54:43 2002

@<TRIPOS>MOLECULE
8-19
   38    40     1     0     1
SMALL
USER_CHARGES
****
From 3DB ct
@<TRIPOS>ATOM
      1 C          21.245000   21.192000   16.943000 C.ar      1 <1>        -0.640100 
      2 C          21.961000   20.325000   17.770000 C.ar      1 <1>         0.071800 
      3 H          21.448000   19.566000   18.355000 H         1 <1>         0.179000 
      4 C          23.353000   20.439000   17.852000 C.ar      1 <1>        -0.272900 
      5 H          23.886000   19.748000   18.505000 H         1 <1>         0.218900 
      6 C          24.044000   21.405000   17.095000 C.ar      1 <1>         0.458200 
      7 C          23.308000   22.274000   16.279000 C.ar      1 <1>        -0.398900 
      8 H          23.772000   23.079000   15.719000 H         1 <1>         0.192900 
      9 C          21.913000   22.164000   16.196000 C.ar      1 <1>         0.123400 
     10 H          21.363000   22.851000   15.557000 H         1 <1>         0.171500 
     11 N          25.469000   21.490000   17.216000 N.pl3     1 <1>        -0.042600 
     12 C          26.417000   22.145000   16.421000 C.ar      1 <1>        -0.029200 
     13 C          26.215000   22.731000   15.098000 C.ar      1 <1>         0.206100 
     14 C          26.474000   24.091000   14.882000 C.ar      1 <1>        -0.193900 
     15 H          26.804000   24.728000   15.701000 H         1 <1>         0.173700 
     16 C          26.302000   24.649000   13.613000 C.ar      1 <1>        -0.147400 
     17 H          26.498000   25.709000   13.456000 H         1 <1>         0.155500 
     18 C          25.882000   23.852000   12.550000 C.ar      1 <1>        -0.115500 
     19 H          25.750000   24.288000   11.562000 H         1 <1>         0.150100 
     20 C          25.639000   22.494000   12.751000 C.ar      1 <1>        -0.154900 
     21 H          25.319000   21.869000   11.919000 H         1 <1>         0.160400 
     22 C          25.810000   21.933000   14.019000 C.ar      1 <1>        -0.213900 
     23 H          25.625000   20.869000   14.154000 H         1 <1>         0.178200 
     24 C          27.615000   22.056000   17.111000 C.ar      1 <1>        -0.554500 
     25 H          28.564000   22.469000   16.795000 H         1 <1>         0.259000 
     26 C          27.337000   21.266000   18.227000 C.ar      1 <1>         0.654700 
     27 N          26.072000   20.872000   18.283000 N.ar      1 <1>        -0.533200 
     28 O          28.114000   20.812000   19.230000 O.3       1 <1>        -0.407300 
     29 C          29.468000   21.251000   19.152000 C.3       1 <1>         0.079300 
     30 H          30.003000   20.840000   20.014000 H         1 <1>         0.093100 
     31 H          29.533000   22.343000   19.206000 H         1 <1>         0.035900 
     32 H          29.953000   20.874000   18.245000 H         1 <1>         0.038500 
     33 S          19.486000   21.026000   16.825000 S.o2      1 <1>         2.430200 
     34 O          18.923000   22.285000   16.368000 O.2       1 <1>        -0.997800 
     35 O          18.978000   20.383000   18.024000 O.2       1 <1>        -0.990000 
     36 N          19.319000   19.922000   15.576000 N.pl3     1 <1>        -1.309100 
     37 H          18.817000   20.333000   14.784000 H         1 <1>         0.483500 
     38 H          18.865000   19.065000   15.901000 H         1 <1>         0.487200 
@<TRIPOS>BOND
     1    1    2 ar   
     2    2    3 1    
     3    2    4 ar   
     4    4    5 1    
     5    4    6 ar   
     6    6    7 ar   
     7    7    8 1    
     8    7    9 ar   
     9    9   10 1    
    10    9    1 ar   
    11    6   11 1    
    12   11   12 ar   
    13   12   13 1    
    14   13   14 ar   
    15   14   15 1    
    16   14   16 ar   
    17   16   17 1    
    18   16   18 ar   
    19   18   19 1    
    20   18   20 ar   
    21   20   21 1    
    22   20   22 ar   
    23   22   23 1    
    24   22   13 ar   
    25   12   24 ar   
    26   24   25 1    
    27   24   26 ar   
    28   26   27 ar   
    29   27   11 ar   
    30   26   28 1    
    31   28   29 1    
    32   29   30 1    
    33   29   31 1    
    34   29   32 1    
    35    1   33 1    
    36   33   34 2    
    37   33   35 2    
    38   33   36 1    
    39   36   37 1    
    40   36   38 1    
@<TRIPOS>SUBSTRUCTURE
     1 ****        1 TEMP              0 ****  ****    0 ROOT 
@<TRIPOS>SET
UNITY_3DHIT     STATIC     ATOMS    <user>   **** Atoms matching 3D or FLEX Search
0
