#	Name:			8-1ar
#	Creating user name:	jeff
#	Creation time:		Fri Dec 13 09:56:13 2002

#	Modifying user name:	jeff
#	Modification time:	Fri Dec 13 09:56:15 2002

@<TRIPOS>MOLECULE
8-1ar
   45    48     1     0     1
SMALL
USER_CHARGES
****
From 3DB ct
@<TRIPOS>ATOM
      1 C          21.259000   21.173000   16.911000 C.ar      1 <1>        -0.619900 
      2 C          21.969000   20.317000   17.753000 C.ar      1 <1>         0.068400 
      3 H          21.457000   19.555000   18.337000 H         1 <1>         0.185700 
      4 C          23.360000   20.434000   17.845000 C.ar      1 <1>        -0.220300 
      5 H          23.890000   19.746000   18.503000 H         1 <1>         0.190100 
      6 C          24.055000   21.401000   17.093000 C.ar      1 <1>         0.327400 
      7 C          23.322000   22.272000   16.274000 C.ar      1 <1>        -0.282200 
      8 H          23.788000   23.081000   15.721000 H         1 <1>         0.161600 
      9 C          21.929000   22.157000   16.181000 C.ar      1 <1>         0.081400 
     10 H          21.378000   22.843000   15.541000 H         1 <1>         0.183400 
     11 N          25.479000   21.488000   17.220000 N.pl3     1 <1>        -0.025700 
     12 C          26.426000   22.141000   16.428000 C.ar      1 <1>         0.194000 
     13 C          26.229000   22.719000   15.101000 C.ar      1 <1>         0.019000 
     14 C          25.770000   21.927000   14.048000 C.ar      1 <1>        -0.161600 
     15 H          25.576000   20.865000   14.194000 H         1 <1>         0.170600 
     16 C          25.560000   22.488000   12.786000 C.ar      1 <1>        -0.185400 
     17 H          25.205000   21.842000   11.983000 H         1 <1>         0.211800 
     18 C          25.793000   23.852000   12.552000 C.ar      1 <1>        -0.113900 
     19 C          26.257000   24.659000   13.601000 C.ar      1 <1>         0.221600 
     20 C          26.450000   24.083000   14.874000 C.ar      1 <1>        -0.313300 
     21 H          26.782000   24.717000   15.697000 H         1 <1>         0.196000 
     22 C          26.512000   26.139000   13.460000 C.3       1 <1>        -0.183600 
     23 H          27.394000   26.412000   14.055000 H         1 <1>         0.071100 
     24 H          25.655000   26.675000   13.887000 H         1 <1>         0.090500 
     25 C          26.748000   26.612000   12.031000 C.3       1 <1>        -0.058700 
     26 H          26.863000   27.703000   12.038000 H         1 <1>         0.051400 
     27 H          27.688000   26.202000   11.639000 H         1 <1>         0.071400 
     28 C          25.584000   26.241000   11.133000 C.3       1 <1>        -0.221200 
     29 H          24.635000   26.596000   11.550000 H         1 <1>         0.110700 
     30 H          25.706000   26.705000   10.149000 H         1 <1>         0.145400 
     31 S          25.492000   24.441000   10.892000 S.3       1 <1>        -0.041000 
     32 C          27.618000   22.060000   17.125000 C.ar      1 <1>        -0.419600 
     33 H          28.571000   22.473000   16.820000 H         1 <1>         0.276900 
     34 C          27.365000   21.265000   18.262000 C.ar      1 <1>        -0.167200 
     35 N          26.078000   20.870000   18.287000 N.ar      1 <1>        -0.282700 
     36 C          28.366000   20.852000   19.308000 C.3       1 <1>         1.501600 
     37 F          29.579000   21.461000   19.151000 F         1 <1>        -0.458500 
     38 F          28.610000   19.508000   19.293000 F         1 <1>        -0.447300 
     39 F          27.953000   21.153000   20.575000 F         1 <1>        -0.451500 
     40 S          19.494000   21.060000   16.811000 S.o2      1 <1>         2.434500 
     41 O          18.958000   22.344000   16.395000 O.2       1 <1>        -0.992300 
     42 O          18.983000   20.399000   17.999000 O.2       1 <1>        -0.985800 
     43 N          19.283000   19.997000   15.533000 N.pl3     1 <1>        -1.307000 
     44 H          18.784000   20.444000   14.759000 H         1 <1>         0.485100 
     45 H          18.809000   19.143000   15.839000 H         1 <1>         0.489400 
@<TRIPOS>BOND
     1    1    2 ar   
     2    2    3 1    
     3    2    4 ar   
     4    4    5 1    
     5    4    6 ar   
     6    6    7 ar   
     7    7    8 1    
     8    7    9 ar   
     9    9   10 1    
    10    9    1 ar   
    11    6   11 1    
    12   11   12 ar   
    13   12   13 1    
    14   13   14 ar   
    15   14   15 1    
    16   14   16 ar   
    17   16   17 1    
    18   16   18 ar   
    19   18   19 ar   
    20   19   20 ar   
    21   20   21 1    
    22   20   13 ar   
    23   19   22 1    
    24   22   23 1    
    25   22   24 1    
    26   22   25 1    
    27   25   26 1    
    28   25   27 1    
    29   25   28 1    
    30   28   29 1    
    31   28   30 1    
    32   28   31 1    
    33   31   18 1    
    34   12   32 ar   
    35   32   33 1    
    36   32   34 ar   
    37   34   35 ar   
    38   35   11 ar   
    39   34   36 1    
    40   36   37 1    
    41   36   38 1    
    42   36   39 1    
    43    1   40 1    
    44   40   41 2    
    45   40   42 2    
    46   40   43 1    
    47   43   44 1    
    48   43   45 1    
@<TRIPOS>SUBSTRUCTURE
     1 ****        1 TEMP              0 ****  ****    0 ROOT 
@<TRIPOS>SET
UNITY_3DHIT     STATIC     ATOMS    <user>   **** Atoms matching 3D or FLEX Search
0
