#	Name:			8-1ae
#	Creating user name:	jeff
#	Creation time:		Fri Dec 13 09:53:43 2002

#	Modifying user name:	jeff
#	Modification time:	Fri Dec 13 09:53:45 2002

@<TRIPOS>MOLECULE
8-1ae
   37    39     1     0     1
SMALL
USER_CHARGES
****
From 3DB ct
@<TRIPOS>ATOM
      1 C          21.248000   21.185000   16.949000 C.ar      1 <1>        -0.627200 
      2 C          21.965000   20.320000   17.775000 C.ar      1 <1>         0.099800 
      3 H          21.457000   19.557000   18.362000 H         1 <1>         0.178900 
      4 C          23.357000   20.435000   17.856000 C.ar      1 <1>        -0.243300 
      5 H          23.891000   19.744000   18.508000 H         1 <1>         0.196100 
      6 C          24.046000   21.401000   17.098000 C.ar      1 <1>         0.321800 
      7 C          23.309000   22.272000   16.284000 C.ar      1 <1>        -0.378100 
      8 H          23.772000   23.079000   15.726000 H         1 <1>         0.195700 
      9 C          21.916000   22.159000   16.202000 C.ar      1 <1>         0.147500 
     10 H          21.359000   22.844000   15.565000 H         1 <1>         0.166600 
     11 N          25.471000   21.488000   17.217000 N.pl3     1 <1>         0.095400 
     12 C          26.413000   22.147000   16.423000 C.ar      1 <1>        -0.100500 
     13 C          26.210000   22.731000   15.098000 C.ar      1 <1>         0.210100 
     14 C          26.467000   24.091000   14.881000 C.ar      1 <1>         0.096200 
     15 H          26.793000   24.720000   15.707000 H         1 <1>         0.103100 
     16 C          26.300000   24.650000   13.609000 C.ar      1 <1>        -0.320300 
     17 C          25.883000   23.847000   12.541000 C.ar      1 <1>        -0.269400 
     18 C          25.640000   22.488000   12.750000 C.ar      1 <1>         0.111600 
     19 H          25.323000   21.850000   11.928000 H         1 <1>         0.103200 
     20 C          25.809000   21.931000   14.021000 C.ar      1 <1>        -0.252200 
     21 H          25.626000   20.866000   14.157000 H         1 <1>         0.191900 
     22 Cl         25.656000   24.473000   10.946000 Cl        1 <1>         0.110000 
     23 Cl         26.626000   26.338000   13.422000 Cl        1 <1>         0.113800 
     24 C          27.608000   22.066000   17.114000 C.ar      1 <1>        -0.295400 
     25 H          28.559000   22.483000   16.806000 H         1 <1>         0.237100 
     26 C          27.363000   21.265000   18.248000 C.ar      1 <1>        -0.151100 
     27 N          26.078000   20.866000   18.277000 N.ar      1 <1>        -0.300000 
     28 C          28.370000   20.850000   19.287000 C.3       1 <1>         1.453900 
     29 F          29.564000   21.500000   19.158000 F         1 <1>        -0.444700 
     30 F          28.656000   19.515000   19.230000 F         1 <1>        -0.435000 
     31 F          27.941000   21.096000   20.561000 F         1 <1>        -0.438300 
     32 S          19.488000   21.041000   16.813000 S.o2      1 <1>         2.394300 
     33 O          18.933000   22.299000   16.346000 O.2       1 <1>        -0.976100 
     34 O          18.974000   20.409000   18.015000 O.2       1 <1>        -0.972400 
     35 N          19.319000   19.942000   15.560000 N.pl3     1 <1>        -1.304600 
     36 H          18.834000   20.363000   14.764000 H         1 <1>         0.489100 
     37 H          18.848000   19.090000   15.876000 H         1 <1>         0.492500 
@<TRIPOS>BOND
     1    1    2 ar   
     2    2    3 1    
     3    2    4 ar   
     4    4    5 1    
     5    4    6 ar   
     6    6    7 ar   
     7    7    8 1    
     8    7    9 ar   
     9    9   10 1    
    10    9    1 ar   
    11    6   11 1    
    12   11   12 ar   
    13   12   13 1    
    14   13   14 ar   
    15   14   15 1    
    16   14   16 ar   
    17   16   17 ar   
    18   17   18 ar   
    19   18   19 1    
    20   18   20 ar   
    21   20   21 1    
    22   20   13 ar   
    23   17   22 1    
    24   16   23 1    
    25   12   24 ar   
    26   24   25 1    
    27   24   26 ar   
    28   26   27 ar   
    29   27   11 ar   
    30   26   28 1    
    31   28   29 1    
    32   28   30 1    
    33   28   31 1    
    34    1   32 1    
    35   32   33 2    
    36   32   34 2    
    37   32   35 1    
    38   35   36 1    
    39   35   37 1    
@<TRIPOS>SUBSTRUCTURE
     1 ****        1 TEMP              0 ****  ****    0 ROOT 
@<TRIPOS>SET
UNITY_3DHIT     STATIC     ATOMS    <user>   **** Atoms matching 3D or FLEX Search
0
