#	Name:			8-1at
#	Creating user name:	jeff
#	Creation time:		Fri Dec 13 09:56:17 2002

#	Modifying user name:	jeff
#	Modification time:	Fri Dec 13 09:56:20 2002

@<TRIPOS>MOLECULE
8-1at
   43    46     1     0     1
SMALL
USER_CHARGES
****
From 3DB ct
@<TRIPOS>ATOM
      1 C          21.263000   21.177000   16.905000 C.ar      1 <1>        -0.617600 
      2 C          21.972000   20.320000   17.747000 C.ar      1 <1>         0.054000 
      3 H          21.459000   19.559000   18.331000 H         1 <1>         0.191100 
      4 C          23.363000   20.436000   17.841000 C.ar      1 <1>        -0.215700 
      5 H          23.893000   19.748000   18.499000 H         1 <1>         0.189200 
      6 C          24.058000   21.403000   17.088000 C.ar      1 <1>         0.353300 
      7 C          23.327000   22.274000   16.269000 C.ar      1 <1>        -0.280000 
      8 H          23.795000   23.083000   15.718000 H         1 <1>         0.166200 
      9 C          21.934000   22.161000   16.176000 C.ar      1 <1>         0.077700 
     10 H          21.384000   22.849000   15.536000 H         1 <1>         0.184700 
     11 N          25.482000   21.490000   17.216000 N.pl3     1 <1>        -0.104700 
     12 C          26.428000   22.150000   16.430000 C.ar      1 <1>         0.346900 
     13 C          26.231000   22.737000   15.105000 C.ar      1 <1>        -0.202600 
     14 C          25.760000   21.932000   14.043000 C.ar      1 <1>        -0.181400 
     15 H          25.576000   20.871000   14.217000 H         1 <1>         0.205000 
     16 C          25.530000   22.470000   12.765000 C.ar      1 <1>         0.023600 
     17 C          25.793000   23.818000   12.595000 C.ar      1 <1>         0.161700 
     18 C          26.239000   24.609000   13.630000 C.ar      1 <1>         0.244600 
     19 C          26.460000   24.104000   14.894000 C.ar      1 <1>        -0.244800 
     20 H          26.803000   24.755000   15.693000 H         1 <1>         0.236400 
     21 O          26.425000   25.904000   13.255000 O.3       1 <1>        -0.404800 
     22 C          26.051000   25.845000   11.859000 C.3       1 <1>         0.279200 
     23 H          25.218000   26.537000   11.689000 H         1 <1>         0.100100 
     24 H          26.907000   26.162000   11.252000 H         1 <1>         0.095600 
     25 O          25.649000   24.521000   11.438000 O.3       1 <1>        -0.373700 
     26 C          25.066000   21.610000   11.632000 C.3       1 <1>        -0.226400 
     27 H          24.272000   22.111000   11.068000 H         1 <1>         0.094700 
     28 H          24.658000   20.661000   11.994000 H         1 <1>         0.076200 
     29 H          25.901000   21.393000   10.959000 H         1 <1>         0.096700 
     30 C          27.620000   22.066000   17.126000 C.ar      1 <1>        -0.445700 
     31 H          28.573000   22.483000   16.823000 H         1 <1>         0.285700 
     32 C          27.368000   21.263000   18.257000 C.ar      1 <1>        -0.182800 
     33 N          26.082000   20.865000   18.279000 N.ar      1 <1>        -0.260600 
     34 C          28.369000   20.846000   19.301000 C.3       1 <1>         1.518000 
     35 F          29.570000   21.485000   19.170000 F         1 <1>        -0.460700 
     36 F          28.643000   19.508000   19.254000 F         1 <1>        -0.450900 
     37 F          27.940000   21.105000   20.572000 F         1 <1>        -0.455100 
     38 S          19.497000   21.064000   16.807000 S.o2      1 <1>         2.438500 
     39 O          18.960000   22.348000   16.392000 O.2       1 <1>        -0.992600 
     40 O          18.989000   20.403000   17.996000 O.2       1 <1>        -0.987300 
     41 N          19.285000   20.002000   15.529000 N.pl3     1 <1>        -1.302200 
     42 H          18.787000   20.450000   14.755000 H         1 <1>         0.483700 
     43 H          18.811000   19.148000   15.834000 H         1 <1>         0.486900 
@<TRIPOS>BOND
     1    1    2 ar   
     2    2    3 1    
     3    2    4 ar   
     4    4    5 1    
     5    4    6 ar   
     6    6    7 ar   
     7    7    8 1    
     8    7    9 ar   
     9    9   10 1    
    10    9    1 ar   
    11    6   11 1    
    12   11   12 ar   
    13   12   13 1    
    14   13   14 ar   
    15   14   15 1    
    16   14   16 ar   
    17   16   17 ar   
    18   17   18 ar   
    19   18   19 ar   
    20   19   20 1    
    21   19   13 ar   
    22   18   21 1    
    23   21   22 1    
    24   22   23 1    
    25   22   24 1    
    26   22   25 1    
    27   25   17 1    
    28   16   26 1    
    29   26   27 1    
    30   26   28 1    
    31   26   29 1    
    32   12   30 ar   
    33   30   31 1    
    34   30   32 ar   
    35   32   33 ar   
    36   33   11 ar   
    37   32   34 1    
    38   34   35 1    
    39   34   36 1    
    40   34   37 1    
    41    1   38 1    
    42   38   39 2    
    43   38   40 2    
    44   38   41 1    
    45   41   42 1    
    46   41   43 1    
@<TRIPOS>SUBSTRUCTURE
     1 ****        1 TEMP              0 ****  ****    0 ROOT 
@<TRIPOS>SET
UNITY_3DHIT     STATIC     ATOMS    <user>   **** Atoms matching 3D or FLEX Search
0
