#	Name:			8-1ac
#	Creating user name:	jeff
#	Creation time:		Fri Dec 13 09:53:38 2002

#	Modifying user name:	jeff
#	Modification time:	Fri Dec 13 09:53:40 2002

@<TRIPOS>MOLECULE
8-1ac
   42    44     1     0     1
SMALL
USER_CHARGES
****
From 3DB ct
@<TRIPOS>ATOM
      1 C          21.247000   21.185000   16.951000 C.ar      1 <1>        -0.637700 
      2 C          21.963000   20.320000   17.777000 C.ar      1 <1>         0.083900 
      3 H          21.455000   19.558000   18.365000 H         1 <1>         0.181900 
      4 C          23.355000   20.434000   17.856000 C.ar      1 <1>        -0.234000 
      5 H          23.890000   19.743000   18.508000 H         1 <1>         0.191000 
      6 C          24.045000   21.400000   17.099000 C.ar      1 <1>         0.340600 
      7 C          23.308000   22.271000   16.285000 C.ar      1 <1>        -0.332400 
      8 H          23.771000   23.078000   15.726000 H         1 <1>         0.177200 
      9 C          21.914000   22.159000   16.204000 C.ar      1 <1>         0.124100 
     10 H          21.358000   22.845000   15.568000 H         1 <1>         0.173200 
     11 N          25.470000   21.486000   17.216000 N.pl3     1 <1>         0.010100 
     12 C          26.412000   22.146000   16.424000 C.ar      1 <1>         0.109000 
     13 C          26.211000   22.729000   15.099000 C.ar      1 <1>        -0.191600 
     14 C          26.465000   24.083000   14.875000 C.ar      1 <1>         0.402100 
     15 H          26.790000   24.711000   15.704000 H         1 <1>         0.072800 
     16 C          26.303000   24.653000   13.598000 C.ar      1 <1>        -0.953800 
     17 C          25.886000   23.874000   12.498000 C.ar      1 <1>         0.970200 
     18 C          25.653000   22.506000   12.754000 C.ar      1 <1>        -0.530500 
     19 H          25.336000   21.849000   11.943000 H         1 <1>         0.217300 
     20 C          25.816000   21.938000   14.023000 C.ar      1 <1>        -0.004500 
     21 H          25.630000   20.872000   14.150000 H         1 <1>         0.172100 
     22 N          25.678000   24.285000   11.193000 N.pl3     1 <1>        -0.897900 
     23 H          25.849000   25.269000   10.980000 H         1 <1>         0.457900 
     24 C          25.253000   23.489000   10.063000 C.3       1 <1>         0.128500 
     25 H          25.201000   24.127000    9.174000 H         1 <1>         0.083100 
     26 H          24.252000   23.077000   10.219000 H         1 <1>         0.035500 
     27 H          25.970000   22.693000    9.844000 H         1 <1>         0.034600 
     28 Cl         26.656000   26.348000   13.509000 Cl        1 <1>         0.130200 
     29 C          27.607000   22.066000   17.117000 C.ar      1 <1>        -0.354700 
     30 H          28.558000   22.484000   16.810000 H         1 <1>         0.245900 
     31 C          27.361000   21.262000   18.248000 C.ar      1 <1>        -0.174300 
     32 N          26.076000   20.862000   18.276000 N.ar      1 <1>        -0.289500 
     33 C          28.369000   20.844000   19.286000 C.3       1 <1>         1.488800 
     34 F          29.560000   21.502000   19.163000 F         1 <1>        -0.453600 
     35 F          28.661000   19.511000   19.219000 F         1 <1>        -0.444900 
     36 F          27.937000   21.078000   20.561000 F         1 <1>        -0.449700 
     37 S          19.486000   21.039000   16.816000 S.o2      1 <1>         2.421700 
     38 O          18.930000   22.296000   16.347000 O.2       1 <1>        -0.989300 
     39 O          18.972000   20.407000   18.018000 O.2       1 <1>        -0.982400 
     40 N          19.320000   19.939000   15.563000 N.pl3     1 <1>        -1.302400 
     41 H          18.836000   20.359000   14.765000 H         1 <1>         0.483900 
     42 H          18.849000   19.088000   15.880000 H         1 <1>         0.487600 
@<TRIPOS>BOND
     1    1    2 ar   
     2    2    3 1    
     3    2    4 ar   
     4    4    5 1    
     5    4    6 ar   
     6    6    7 ar   
     7    7    8 1    
     8    7    9 ar   
     9    9   10 1    
    10    9    1 ar   
    11    6   11 1    
    12   11   12 ar   
    13   12   13 1    
    14   13   14 ar   
    15   14   15 1    
    16   14   16 ar   
    17   16   17 ar   
    18   17   18 ar   
    19   18   19 1    
    20   18   20 ar   
    21   20   21 1    
    22   20   13 ar   
    23   17   22 1    
    24   22   23 1    
    25   22   24 1    
    26   24   25 1    
    27   24   26 1    
    28   24   27 1    
    29   16   28 1    
    30   12   29 ar   
    31   29   30 1    
    32   29   31 ar   
    33   31   32 ar   
    34   32   11 ar   
    35   31   33 1    
    36   33   34 1    
    37   33   35 1    
    38   33   36 1    
    39    1   37 1    
    40   37   38 2    
    41   37   39 2    
    42   37   40 1    
    43   40   41 1    
    44   40   42 1    
@<TRIPOS>SUBSTRUCTURE
     1 ****        1 TEMP              0 ****  ****    0 ROOT 
@<TRIPOS>SET
UNITY_3DHIT     STATIC     ATOMS    <user>   **** Atoms matching 3D or FLEX Search
0
