#	Name:			8-1ab
#	Creating user name:	jeff
#	Creation time:		Fri Dec 13 09:53:35 2002

#	Modifying user name:	jeff
#	Modification time:	Fri Dec 13 09:53:38 2002

@<TRIPOS>MOLECULE
8-1ab
   45    47     1     0     1
SMALL
USER_CHARGES
****
From 3DB ct
@<TRIPOS>ATOM
      1 C          21.236000   21.175000   16.949000 C.ar      1 <1>        -0.624400 
      2 C          21.961000   20.323000   17.782000 C.ar      1 <1>         0.060200 
      3 H          21.457000   19.555000   18.365000 H         1 <1>         0.187600 
      4 C          23.351000   20.460000   17.871000 C.ar      1 <1>        -0.216500 
      5 H          23.888000   19.778000   18.530000 H         1 <1>         0.189400 
      6 C          24.033000   21.438000   17.118000 C.ar      1 <1>         0.340000 
      7 C          23.285000   22.292000   16.296000 C.ar      1 <1>        -0.308200 
      8 H          23.729000   23.097000   15.725000 H         1 <1>         0.172200 
      9 C          21.893000   22.157000   16.205000 C.ar      1 <1>         0.103000 
     10 H          21.334000   22.831000   15.560000 H         1 <1>         0.177600 
     11 N          25.461000   21.526000   17.233000 N.pl3     1 <1>        -0.027800 
     12 C          26.414000   22.126000   16.408000 C.ar      1 <1>         0.209900 
     13 C          26.213000   22.736000   15.100000 C.ar      1 <1>        -0.062300 
     14 C          26.473000   24.090000   14.905000 C.ar      1 <1>        -0.261400 
     15 H          26.792000   24.724000   15.729000 H         1 <1>         0.225400 
     16 C          26.325000   24.656000   13.635000 C.ar      1 <1>         0.387700 
     17 C          25.927000   23.912000   12.501000 C.ar      1 <1>         0.058500 
     18 C          25.687000   22.543000   12.735000 C.ar      1 <1>        -0.255100 
     19 H          25.386000   21.878000   11.928000 H         1 <1>         0.180800 
     20 C          25.827000   21.962000   14.006000 C.ar      1 <1>        -0.138700 
     21 H          25.636000   20.895000   14.120000 H         1 <1>         0.179800 
     22 N          25.781000   24.462000   11.228000 N.pl3     1 <1>        -0.224800 
     23 C          25.953000   25.897000   10.992000 C.3       1 <1>        -0.106000 
     24 H          25.694000   26.171000    9.962000 H         1 <1>         0.096600 
     25 H          26.995000   26.192000   11.152000 H         1 <1>         0.092000 
     26 H          25.296000   26.485000   11.642000 H         1 <1>         0.093800 
     27 C          25.502000   23.620000   10.062000 C.3       1 <1>        -0.027100 
     28 H          25.476000   24.201000    9.134000 H         1 <1>         0.091500 
     29 H          24.527000   23.131000   10.161000 H         1 <1>         0.052400 
     30 H          26.281000   22.859000    9.938000 H         1 <1>         0.057500 
     31 F          26.607000   25.966000   13.531000 F         1 <1>        -0.363600 
     32 C          27.632000   21.954000   17.038000 C.ar      1 <1>        -0.429400 
     33 H          28.598000   22.289000   16.675000 H         1 <1>         0.274500 
     34 C          27.377000   21.205000   18.202000 C.ar      1 <1>        -0.141000 
     35 N          26.064000   20.939000   18.318000 N.ar      1 <1>        -0.297000 
     36 C          28.406000   20.734000   19.195000 C.3       1 <1>         1.477100 
     37 F          29.625000   20.513000   18.617000 F         1 <1>        -0.453900 
     38 F          28.061000   19.563000   19.810000 F         1 <1>        -0.440900 
     39 F          28.617000   21.643000   20.193000 F         1 <1>        -0.449400 
     40 S          19.481000   20.980000   16.804000 S.o2      1 <1>         2.426900 
     41 O          18.902000   22.225000   16.327000 O.2       1 <1>        -0.990200 
     42 O          18.964000   20.337000   17.998000 O.2       1 <1>        -0.984600 
     43 N          19.355000   19.869000   15.558000 N.pl3     1 <1>        -1.302500 
     44 H          18.849000   20.266000   14.761000 H         1 <1>         0.483400 
     45 H          18.916000   19.003000   15.884000 H         1 <1>         0.487300 
@<TRIPOS>BOND
     1    1    2 ar   
     2    2    3 1    
     3    2    4 ar   
     4    4    5 1    
     5    4    6 ar   
     6    6    7 ar   
     7    7    8 1    
     8    7    9 ar   
     9    9   10 1    
    10    9    1 ar   
    11    6   11 1    
    12   11   12 ar   
    13   12   13 1    
    14   13   14 ar   
    15   14   15 1    
    16   14   16 ar   
    17   16   17 ar   
    18   17   18 ar   
    19   18   19 1    
    20   18   20 ar   
    21   20   21 1    
    22   20   13 ar   
    23   17   22 1    
    24   22   23 1    
    25   23   24 1    
    26   23   25 1    
    27   23   26 1    
    28   22   27 1    
    29   27   28 1    
    30   27   29 1    
    31   27   30 1    
    32   16   31 1    
    33   12   32 ar   
    34   32   33 1    
    35   32   34 ar   
    36   34   35 ar   
    37   35   11 ar   
    38   34   36 1    
    39   36   37 1    
    40   36   38 1    
    41   36   39 1    
    42    1   40 1    
    43   40   41 2    
    44   40   42 2    
    45   40   43 1    
    46   43   44 1    
    47   43   45 1    
@<TRIPOS>SUBSTRUCTURE
     1 ****        1 TEMP              0 ****  ****    0 ROOT 
@<TRIPOS>SET
UNITY_3DHIT     STATIC     ATOMS    <user>   **** Atoms matching 3D or FLEX Search
0
