#	Name:			8-1af
#	Creating user name:	jeff
#	Creation time:		Fri Dec 13 09:53:45 2002

#	Modifying user name:	jeff
#	Modification time:	Fri Dec 13 09:53:47 2002

@<TRIPOS>MOLECULE
8-1af
   37    39     1     0     1
SMALL
USER_CHARGES
****
From 3DB ct
@<TRIPOS>ATOM
      1 C          21.239000   21.175000   16.947000 C.ar      1 <1>        -0.632200 
      2 C          21.963000   20.320000   17.776000 C.ar      1 <1>         0.075800 
      3 H          21.463000   19.553000   18.363000 H         1 <1>         0.183400 
      4 C          23.354000   20.452000   17.858000 C.ar      1 <1>        -0.198900 
      5 H          23.890000   19.766000   18.514000 H         1 <1>         0.183600 
      6 C          24.039000   21.427000   17.105000 C.ar      1 <1>         0.303200 
      7 C          23.291000   22.282000   16.285000 C.ar      1 <1>        -0.363200 
      8 H          23.736000   23.086000   15.713000 H         1 <1>         0.174300 
      9 C          21.898000   22.153000   16.201000 C.ar      1 <1>         0.153200 
     10 H          21.336000   22.828000   15.559000 H         1 <1>         0.167400 
     11 N          25.467000   21.515000   17.227000 N.pl3     1 <1>         0.089400 
     12 C          26.423000   22.134000   16.419000 C.ar      1 <1>        -0.281100 
     13 C          26.224000   22.755000   15.110000 C.ar      1 <1>         0.982900 
     14 C          26.473000   24.120000   14.872000 C.ar      1 <1>        -0.977000 
     15 C          26.297000   24.663000   13.595000 C.ar      1 <1>         0.739500 
     16 H          26.483000   25.719000   13.419000 H         1 <1>        -0.020400 
     17 C          25.880000   23.844000   12.549000 C.ar      1 <1>        -0.806400 
     18 C          25.639000   22.489000   12.764000 C.ar      1 <1>         0.438000 
     19 H          25.318000   21.847000   11.947000 H         1 <1>         0.064400 
     20 C          25.814000   21.945000   14.039000 C.ar      1 <1>        -0.675400 
     21 H          25.628000   20.882000   14.188000 H         1 <1>         0.270400 
     22 Cl         25.661000   24.510000   10.977000 Cl        1 <1>         0.161500 
     23 Cl         26.977000   25.189000   16.137000 Cl        1 <1>         0.201200 
     24 C          27.634000   21.973000   17.068000 C.ar      1 <1>        -0.358300 
     25 H          28.598000   22.331000   16.730000 H         1 <1>         0.251600 
     26 C          27.370000   21.217000   18.227000 C.ar      1 <1>        -0.043000 
     27 N          26.064000   20.907000   18.302000 N.ar      1 <1>        -0.313000 
     28 C          28.381000   20.765000   19.247000 C.3       1 <1>         1.410800 
     29 F          29.526000   21.508000   19.218000 F         1 <1>        -0.436100 
     30 F          28.763000   19.467000   19.057000 F         1 <1>        -0.431900 
     31 F          27.911000   20.843000   20.528000 F         1 <1>        -0.436200 
     32 S          19.481000   21.006000   16.804000 S.o2      1 <1>         2.407300 
     33 O          18.910000   22.258000   16.339000 O.2       1 <1>        -0.982500 
     34 O          18.971000   20.363000   18.003000 O.2       1 <1>        -0.975300 
     35 N          19.333000   19.910000   15.546000 N.pl3     1 <1>        -1.306600 
     36 H          18.849000   20.330000   14.748000 H         1 <1>         0.487500 
     37 H          18.866000   19.054000   15.857000 H         1 <1>         0.492000 
@<TRIPOS>BOND
     1    1    2 ar   
     2    2    3 1    
     3    2    4 ar   
     4    4    5 1    
     5    4    6 ar   
     6    6    7 ar   
     7    7    8 1    
     8    7    9 ar   
     9    9   10 1    
    10    9    1 ar   
    11    6   11 1    
    12   11   12 ar   
    13   12   13 1    
    14   13   14 ar   
    15   14   15 ar   
    16   15   16 1    
    17   15   17 ar   
    18   17   18 ar   
    19   18   19 1    
    20   18   20 ar   
    21   20   21 1    
    22   20   13 ar   
    23   17   22 1    
    24   14   23 1    
    25   12   24 ar   
    26   24   25 1    
    27   24   26 ar   
    28   26   27 ar   
    29   27   11 ar   
    30   26   28 1    
    31   28   29 1    
    32   28   30 1    
    33   28   31 1    
    34    1   32 1    
    35   32   33 2    
    36   32   34 2    
    37   32   35 1    
    38   35   36 1    
    39   35   37 1    
@<TRIPOS>SUBSTRUCTURE
     1 ****        1 TEMP              0 ****  ****    0 ROOT 
@<TRIPOS>SET
UNITY_3DHIT     STATIC     ATOMS    <user>   **** Atoms matching 3D or FLEX Search
0
