#	Name:			8-1ao
#	Creating user name:	jeff
#	Creation time:		Fri Dec 13 09:56:06 2002

#	Modifying user name:	jeff
#	Modification time:	Fri Dec 13 09:56:08 2002

@<TRIPOS>MOLECULE
8-1ao
   40    43     1     0     1
SMALL
USER_CHARGES
****
From 3DB ct
@<TRIPOS>ATOM
      1 C          21.277000   21.203000   16.893000 C.ar      1 <1>        -0.630000 
      2 C          21.973000   20.331000   17.731000 C.ar      1 <1>         0.061300 
      3 H          21.448000   19.576000   18.313000 H         1 <1>         0.186500 
      4 C          23.366000   20.422000   17.821000 C.ar      1 <1>        -0.218600 
      5 H          23.888000   19.724000   18.476000 H         1 <1>         0.191400 
      6 C          24.073000   21.378000   17.068000 C.ar      1 <1>         0.348700 
      7 C          23.357000   22.269000   16.256000 C.ar      1 <1>        -0.328000 
      8 H          23.841000   23.076000   15.715000 H         1 <1>         0.184800 
      9 C          21.962000   22.179000   16.166000 C.ar      1 <1>         0.138400 
     10 H          21.421000   22.879000   15.532000 H         1 <1>         0.168400 
     11 N          25.495000   21.448000   17.192000 N.pl3     1 <1>        -0.006800 
     12 C          26.432000   22.182000   16.474000 C.ar      1 <1>         0.195600 
     13 C          26.258000   22.833000   15.212000 C.ar      1 <1>         0.143500 
     14 O          25.808000   22.160000   14.104000 O.3       1 <1>        -0.249100 
     15 C          25.717000   23.051000   13.081000 C.ar      1 <1>         0.268000 
     16 C          26.085000   24.317000   13.512000 C.ar      1 <1>         0.074700 
     17 C          26.416000   24.171000   14.884000 C.ar      1 <1>        -0.434300 
     18 H          26.733000   24.956000   15.559000 H         1 <1>         0.260900 
     19 C          26.048000   25.379000   12.592000 C.ar      1 <1>        -0.196800 
     20 H          26.326000   26.388000   12.889000 H         1 <1>         0.203500 
     21 C          25.645000   25.114000   11.276000 C.ar      1 <1>        -0.191100 
     22 H          25.613000   25.927000   10.552000 H         1 <1>         0.169300 
     23 C          25.284000   23.823000   10.879000 C.ar      1 <1>        -0.053400 
     24 H          24.973000   23.645000    9.850000 H         1 <1>         0.157800 
     25 C          25.312000   22.754000   11.782000 C.ar      1 <1>        -0.338400 
     26 H          25.032000   21.749000   11.487000 H         1 <1>         0.208400 
     27 C          27.607000   22.113000   17.196000 C.ar      1 <1>        -0.431300 
     28 H          28.544000   22.597000   16.953000 H         1 <1>         0.279000 
     29 C          27.367000   21.200000   18.247000 C.ar      1 <1>        -0.126500 
     30 N          26.102000   20.738000   18.197000 N.ar      1 <1>        -0.291600 
     31 C          28.365000   20.738000   19.276000 C.3       1 <1>         1.488600 
     32 F          29.517000   21.471000   19.262000 F         1 <1>        -0.456000 
     33 F          28.739000   19.438000   19.089000 F         1 <1>        -0.442900 
     34 F          27.879000   20.818000   20.550000 F         1 <1>        -0.452400 
     35 S          19.509000   21.120000   16.796000 S.o2      1 <1>         2.412000 
     36 O          18.995000   22.413000   16.381000 O.2       1 <1>        -0.986800 
     37 O          18.991000   20.469000   17.987000 O.2       1 <1>        -0.980500 
     38 N          19.278000   20.059000   15.520000 N.pl3     1 <1>        -1.300100 
     39 H          18.786000   20.514000   14.747000 H         1 <1>         0.486100 
     40 H          18.791000   19.214000   15.827000 H         1 <1>         0.487800 
@<TRIPOS>BOND
     1    1    2 ar   
     2    2    3 1    
     3    2    4 ar   
     4    4    5 1    
     5    4    6 ar   
     6    6    7 ar   
     7    7    8 1    
     8    7    9 ar   
     9    9   10 1    
    10    9    1 ar   
    11    6   11 1    
    12   11   12 ar   
    13   12   13 1    
    14   13   14 ar   
    15   14   15 ar   
    16   15   16 ar   
    17   16   17 ar   
    18   17   18 1    
    19   17   13 ar   
    20   16   19 ar   
    21   19   20 1    
    22   19   21 ar   
    23   21   22 1    
    24   21   23 ar   
    25   23   24 1    
    26   23   25 ar   
    27   25   26 1    
    28   25   15 ar   
    29   12   27 ar   
    30   27   28 1    
    31   27   29 ar   
    32   29   30 ar   
    33   30   11 ar   
    34   29   31 1    
    35   31   32 1    
    36   31   33 1    
    37   31   34 1    
    38    1   35 1    
    39   35   36 2    
    40   35   37 2    
    41   35   38 1    
    42   38   39 1    
    43   38   40 1    
@<TRIPOS>SUBSTRUCTURE
     1 ****        1 TEMP              0 ****  ****    0 ROOT 
@<TRIPOS>SET
UNITY_3DHIT     STATIC     ATOMS    <user>   **** Atoms matching 3D or FLEX Search
0
