#	Name:			8-1as
#	Creating user name:	jeff
#	Creation time:		Fri Dec 13 09:56:15 2002

#	Modifying user name:	jeff
#	Modification time:	Fri Dec 13 09:56:17 2002

@<TRIPOS>MOLECULE
8-1as
   42    45     1     0     1
SMALL
USER_CHARGES
****
From 3DB ct
@<TRIPOS>ATOM
      1 C          21.261000   21.175000   16.908000 C.ar      1 <1>        -0.614800 
      2 C          21.971000   20.319000   17.750000 C.ar      1 <1>         0.059100 
      3 H          21.459000   19.557000   18.334000 H         1 <1>         0.188400 
      4 C          23.363000   20.436000   17.841000 C.ar      1 <1>        -0.216100 
      5 H          23.893000   19.747000   18.498000 H         1 <1>         0.188800 
      6 C          24.056000   21.403000   17.088000 C.ar      1 <1>         0.338100 
      7 C          23.324000   22.273000   16.270000 C.ar      1 <1>        -0.281200 
      8 H          23.790000   23.082000   15.716000 H         1 <1>         0.169100 
      9 C          21.931000   22.159000   16.177000 C.ar      1 <1>         0.072400 
     10 H          21.379000   22.845000   15.538000 H         1 <1>         0.185300 
     11 N          25.481000   21.490000   17.216000 N.pl3     1 <1>        -0.061100 
     12 C          26.427000   22.148000   16.429000 C.ar      1 <1>         0.290300 
     13 C          26.231000   22.734000   15.104000 C.ar      1 <1>        -0.237600 
     14 C          25.765000   21.930000   14.041000 C.ar      1 <1>         0.029200 
     15 H          25.572000   20.869000   14.201000 H         1 <1>         0.157000 
     16 C          25.557000   22.470000   12.768000 C.ar      1 <1>        -0.470500 
     17 H          25.210000   21.848000   11.949000 H         1 <1>         0.250400 
     18 C          25.802000   23.815000   12.590000 C.ar      1 <1>         0.497900 
     19 C          26.247000   24.621000   13.625000 C.ar      1 <1>        -0.098800 
     20 C          26.466000   24.102000   14.890000 C.ar      1 <1>        -0.136000 
     21 H          26.820000   24.745000   15.693000 H         1 <1>         0.201500 
     22 C          26.483000   25.991000   13.115000 C.3       1 <1>        -0.242400 
     23 H          27.554000   26.162000   12.969000 H         1 <1>         0.111200 
     24 H          26.060000   26.777000   13.746000 H         1 <1>         0.114700 
     25 C          25.753000   25.880000   11.776000 C.3       1 <1>         0.187400 
     26 H          24.733000   26.277000   11.847000 H         1 <1>         0.036700 
     27 H          26.276000   26.427000   10.985000 H         1 <1>         0.074500 
     28 O          25.653000   24.479000   11.401000 O.3       1 <1>        -0.450000 
     29 C          27.619000   22.064000   17.126000 C.ar      1 <1>        -0.445600 
     30 H          28.572000   22.480000   16.823000 H         1 <1>         0.281800 
     31 C          27.366000   21.264000   18.258000 C.ar      1 <1>        -0.173100 
     32 N          26.080000   20.868000   18.280000 N.ar      1 <1>        -0.277900 
     33 C          28.366000   20.847000   19.303000 C.3       1 <1>         1.513400 
     34 F          29.579000   21.457000   19.149000 F         1 <1>        -0.461000 
     35 F          28.611000   19.503000   19.282000 F         1 <1>        -0.450300 
     36 F          27.953000   21.142000   20.571000 F         1 <1>        -0.454300 
     37 S          19.495000   21.062000   16.811000 S.o2      1 <1>         2.435100 
     38 O          18.959000   22.347000   16.397000 O.2       1 <1>        -0.992400 
     39 O          18.987000   20.401000   18.000000 O.2       1 <1>        -0.986800 
     40 N          19.282000   20.000000   15.533000 N.pl3     1 <1>        -1.305800 
     41 H          18.783000   20.448000   14.760000 H         1 <1>         0.485100 
     42 H          18.807000   19.146000   15.839000 H         1 <1>         0.488400 
@<TRIPOS>BOND
     1    1    2 ar   
     2    2    3 1    
     3    2    4 ar   
     4    4    5 1    
     5    4    6 ar   
     6    6    7 ar   
     7    7    8 1    
     8    7    9 ar   
     9    9   10 1    
    10    9    1 ar   
    11    6   11 1    
    12   11   12 ar   
    13   12   13 1    
    14   13   14 ar   
    15   14   15 1    
    16   14   16 ar   
    17   16   17 1    
    18   16   18 ar   
    19   18   19 ar   
    20   19   20 ar   
    21   20   21 1    
    22   20   13 ar   
    23   19   22 1    
    24   22   23 1    
    25   22   24 1    
    26   22   25 1    
    27   25   26 1    
    28   25   27 1    
    29   25   28 1    
    30   28   18 1    
    31   12   29 ar   
    32   29   30 1    
    33   29   31 ar   
    34   31   32 ar   
    35   32   11 ar   
    36   31   33 1    
    37   33   34 1    
    38   33   35 1    
    39   33   36 1    
    40    1   37 1    
    41   37   38 2    
    42   37   39 2    
    43   37   40 1    
    44   40   41 1    
    45   40   42 1    
@<TRIPOS>SUBSTRUCTURE
     1 ****        1 TEMP              0 ****  ****    0 ROOT 
@<TRIPOS>SET
UNITY_3DHIT     STATIC     ATOMS    <user>   **** Atoms matching 3D or FLEX Search
0
