#	Name:			8-1aa
#	Creating user name:	jeff
#	Creation time:		Fri Dec 13 09:53:33 2002

#	Modifying user name:	jeff
#	Modification time:	Fri Dec 13 09:53:35 2002

@<TRIPOS>MOLECULE
8-1aa
   44    46     1     0     1
SMALL
USER_CHARGES
****
From 3DB ct
@<TRIPOS>ATOM
      1 C          21.249000   21.182000   16.946000 C.ar      1 <1>        -0.625700 
      2 C          21.965000   20.319000   17.774000 C.ar      1 <1>         0.054600 
      3 H          21.459000   19.555000   18.360000 H         1 <1>         0.190000 
      4 C          23.357000   20.437000   17.855000 C.ar      1 <1>        -0.208100 
      5 H          23.892000   19.747000   18.508000 H         1 <1>         0.184900 
      6 C          24.047000   21.405000   17.099000 C.ar      1 <1>         0.364700 
      7 C          23.309000   22.273000   16.283000 C.ar      1 <1>        -0.321700 
      8 H          23.769000   23.079000   15.722000 H         1 <1>         0.190300 
      9 C          21.915000   22.157000   16.200000 C.ar      1 <1>         0.095000 
     10 H          21.358000   22.841000   15.562000 H         1 <1>         0.179500 
     11 N          25.472000   21.492000   17.219000 N.pl3     1 <1>        -0.080600 
     12 C          26.417000   22.141000   16.422000 C.ar      1 <1>         0.246200 
     13 C          26.213000   22.724000   15.098000 C.ar      1 <1>        -0.030700 
     14 C          26.470000   24.084000   14.878000 C.ar      1 <1>        -0.312700 
     15 H          26.802000   24.704000   15.711000 H         1 <1>         0.202100 
     16 C          26.295000   24.665000   13.608000 C.ar      1 <1>         0.326800 
     17 C          25.870000   23.853000   12.539000 C.ar      1 <1>        -0.155800 
     18 C          25.625000   22.491000   12.759000 C.ar      1 <1>        -0.168500 
     19 H          25.291000   21.849000   11.945000 H         1 <1>         0.190500 
     20 C          25.801000   21.928000   14.025000 C.ar      1 <1>        -0.169700 
     21 H          25.611000   20.864000   14.162000 H         1 <1>         0.176500 
     22 S          25.598000   24.506000   10.894000 S.3       1 <1>        -0.036400 
     23 C          25.054000   22.980000   10.076000 C.3       1 <1>        -0.246600 
     24 H          24.862000   23.189000    9.021000 H         1 <1>         0.139300 
     25 H          24.132000   22.605000   10.529000 H         1 <1>         0.097400 
     26 H          25.831000   22.213000   10.143000 H         1 <1>         0.084100 
     27 C          26.571000   26.135000   13.440000 C.3       1 <1>        -0.392200 
     28 H          27.366000   26.293000   12.704000 H         1 <1>         0.126700 
     29 H          26.902000   26.591000   14.379000 H         1 <1>         0.109600 
     30 H          25.664000   26.660000   13.124000 H         1 <1>         0.105900 
     31 C          27.614000   22.051000   17.107000 C.ar      1 <1>        -0.429000 
     32 H          28.568000   22.457000   16.793000 H         1 <1>         0.278700 
     33 C          27.364000   21.263000   18.249000 C.ar      1 <1>        -0.163900 
     34 N          26.075000   20.878000   18.287000 N.ar      1 <1>        -0.273700 
     35 C          28.372000   20.846000   19.287000 C.3       1 <1>         1.507900 
     36 F          29.561000   21.506000   19.167000 F         1 <1>        -0.459600 
     37 F          28.667000   19.514000   19.218000 F         1 <1>        -0.449400 
     38 F          27.938000   21.077000   20.562000 F         1 <1>        -0.453200 
     39 S          19.488000   21.039000   16.809000 S.o2      1 <1>         2.439200 
     40 O          18.934000   22.297000   16.341000 O.2       1 <1>        -0.994200 
     41 O          18.975000   20.407000   18.011000 O.2       1 <1>        -0.987000 
     42 N          19.320000   19.942000   15.554000 N.pl3     1 <1>        -1.299300 
     43 H          18.839000   20.366000   14.756000 H         1 <1>         0.481500 
     44 H          18.845000   19.092000   15.868000 H         1 <1>         0.486600 
@<TRIPOS>BOND
     1    1    2 ar   
     2    2    3 1    
     3    2    4 ar   
     4    4    5 1    
     5    4    6 ar   
     6    6    7 ar   
     7    7    8 1    
     8    7    9 ar   
     9    9   10 1    
    10    9    1 ar   
    11    6   11 1    
    12   11   12 ar   
    13   12   13 1    
    14   13   14 ar   
    15   14   15 1    
    16   14   16 ar   
    17   16   17 ar   
    18   17   18 ar   
    19   18   19 1    
    20   18   20 ar   
    21   20   21 1    
    22   20   13 ar   
    23   17   22 1    
    24   22   23 1    
    25   23   24 1    
    26   23   25 1    
    27   23   26 1    
    28   16   27 1    
    29   27   28 1    
    30   27   29 1    
    31   27   30 1    
    32   12   31 ar   
    33   31   32 1    
    34   31   33 ar   
    35   33   34 ar   
    36   34   11 ar   
    37   33   35 1    
    38   35   36 1    
    39   35   37 1    
    40   35   38 1    
    41    1   39 1    
    42   39   40 2    
    43   39   41 2    
    44   39   42 1    
    45   42   43 1    
    46   42   44 1    
@<TRIPOS>SUBSTRUCTURE
     1 ****        1 TEMP              0 ****  ****    0 ROOT 
@<TRIPOS>SET
UNITY_3DHIT     STATIC     ATOMS    <user>   **** Atoms matching 3D or FLEX Search
0
