#	Name:			8-1al
#	Creating user name:	jeff
#	Creation time:		Fri Dec 13 09:56:00 2002

#	Modifying user name:	jeff
#	Modification time:	Fri Dec 13 09:56:02 2002

@<TRIPOS>MOLECULE
8-1al
   34    36     1     0     1
SMALL
USER_CHARGES
****
From 3DB ct
@<TRIPOS>ATOM
      1 C          21.261000   21.182000   16.910000 C.ar      1 <1>        -0.636200 
      2 C          21.960000   20.315000   17.750000 C.ar      1 <1>         0.085900 
      3 H          21.437000   19.558000   18.332000 H         1 <1>         0.183900 
      4 C          23.352000   20.414000   17.844000 C.ar      1 <1>        -0.250100 
      5 H          23.873000   19.718000   18.501000 H         1 <1>         0.198400 
      6 C          24.058000   21.374000   17.095000 C.ar      1 <1>         0.362600 
      7 C          23.338000   22.257000   16.277000 C.ar      1 <1>        -0.367800 
      8 H          23.816000   23.064000   15.731000 H         1 <1>         0.195700 
      9 C          21.944000   22.160000   16.183000 C.ar      1 <1>         0.149100 
     10 H          21.403000   22.856000   15.545000 H         1 <1>         0.165000 
     11 N          25.481000   21.448000   17.227000 N.pl3     1 <1>         0.022400 
     12 C          26.430000   22.157000   16.492000 C.ar      1 <1>         0.080500 
     13 C          26.244000   22.806000   15.225000 C.ar      1 <1>        -0.080900 
     14 S          26.567000   24.480000   15.026000 S.3       1 <1>         0.407800 
     15 C          26.148000   24.421000   13.386000 C.ar      1 <1>        -0.844900 
     16 C          25.785000   23.168000   12.963000 C.ar      1 <1>         0.218300 
     17 H          25.492000   22.924000   11.948000 H         1 <1>         0.106400 
     18 C          25.851000   22.224000   14.033000 C.ar      1 <1>        -0.255700 
     19 H          25.616000   21.171000   13.926000 H         1 <1>         0.211500 
     20 Br         26.190000   25.925000   12.264000 Br        1 <1>         0.312400 
     21 C          27.616000   22.046000   17.192000 C.ar      1 <1>        -0.330600 
     22 H          28.568000   22.487000   16.927000 H         1 <1>         0.256600 
     23 C          27.360000   21.169000   18.268000 C.ar      1 <1>        -0.171400 
     24 N          26.078000   20.756000   18.250000 N.ar      1 <1>        -0.288600 
     25 C          28.356000   20.695000   19.292000 C.3       1 <1>         1.496700 
     26 F          29.545000   21.365000   19.225000 F         1 <1>        -0.456300 
     27 F          28.658000   19.370000   19.149000 F         1 <1>        -0.446200 
     28 F          27.906000   20.850000   20.573000 F         1 <1>        -0.447900 
     29 S          19.494000   21.090000   16.812000 S.o2      1 <1>         2.409900 
     30 O          18.971000   22.383000   16.408000 O.2       1 <1>        -0.982200 
     31 O          18.980000   20.427000   17.998000 O.2       1 <1>        -0.977900 
     32 N          19.269000   20.041000   15.527000 N.pl3     1 <1>        -1.301000 
     33 H          18.777000   20.500000   14.757000 H         1 <1>         0.486200 
     34 H          18.784000   19.191000   15.826000 H         1 <1>         0.488700 
@<TRIPOS>BOND
     1    1    2 ar   
     2    2    3 1    
     3    2    4 ar   
     4    4    5 1    
     5    4    6 ar   
     6    6    7 ar   
     7    7    8 1    
     8    7    9 ar   
     9    9   10 1    
    10    9    1 ar   
    11    6   11 1    
    12   11   12 ar   
    13   12   13 1    
    14   13   14 ar   
    15   14   15 ar   
    16   15   16 ar   
    17   16   17 1    
    18   16   18 ar   
    19   18   19 1    
    20   18   13 ar   
    21   15   20 1    
    22   12   21 ar   
    23   21   22 1    
    24   21   23 ar   
    25   23   24 ar   
    26   24   11 ar   
    27   23   25 1    
    28   25   26 1    
    29   25   27 1    
    30   25   28 1    
    31    1   29 1    
    32   29   30 2    
    33   29   31 2    
    34   29   32 1    
    35   32   33 1    
    36   32   34 1    
@<TRIPOS>SUBSTRUCTURE
     1 ****        1 TEMP              0 ****  ****    0 ROOT 
@<TRIPOS>SET
UNITY_3DHIT     STATIC     ATOMS    <user>   **** Atoms matching 3D or FLEX Search
0
