#	Name:			8-1an
#	Creating user name:	jeff
#	Creation time:		Fri Dec 13 09:56:04 2002

#	Modifying user name:	jeff
#	Modification time:	Fri Dec 13 09:56:06 2002

@<TRIPOS>MOLECULE
8-1an
   40    43     1     0     1
SMALL
USER_CHARGES
****
From 3DB ct
@<TRIPOS>ATOM
      1 C          21.249000   21.181000   16.941000 C.ar      1 <1>        -0.627100 
      2 C          21.957000   20.314000   17.772000 C.ar      1 <1>         0.071500 
      3 H          21.445000   19.553000   18.355000 H         1 <1>         0.189400 
      4 C          23.350000   20.426000   17.859000 C.ar      1 <1>        -0.277600 
      5 H          23.879000   19.733000   18.513000 H         1 <1>         0.209200 
      6 C          24.045000   21.393000   17.108000 C.ar      1 <1>         0.462100 
      7 C          23.315000   22.264000   16.289000 C.ar      1 <1>        -0.377100 
      8 H          23.783000   23.068000   15.730000 H         1 <1>         0.209300 
      9 C          21.922000   22.154000   16.199000 C.ar      1 <1>         0.125400 
     10 H          21.370000   22.840000   15.560000 H         1 <1>         0.170200 
     11 N          25.468000   21.475000   17.230000 N.pl3     1 <1>        -0.193800 
     12 C          26.407000   22.144000   16.457000 C.ar      1 <1>         0.396100 
     13 C          26.250000   22.802000   15.139000 C.ar      1 <1>        -0.383300 
     14 C          25.837000   22.101000   14.029000 C.ar      1 <1>        -0.259800 
     15 H          25.596000   21.049000   13.955000 H         1 <1>         0.267500 
     16 S          25.749000   23.095000   12.647000 S.3       1 <1>         0.214400 
     17 C          26.233000   24.496000   13.527000 C.ar      1 <1>        -0.248900 
     18 C          26.464000   24.202000   14.876000 C.ar      1 <1>         0.343800 
     19 C          26.853000   25.269000   15.727000 C.ar      1 <1>        -0.303000 
     20 H          27.033000   25.089000   16.786000 H         1 <1>         0.188800 
     21 C          27.011000   26.564000   15.223000 C.ar      1 <1>        -0.047200 
     22 H          27.313000   27.369000   15.890000 H         1 <1>         0.148700 
     23 C          26.785000   26.824000   13.880000 C.ar      1 <1>        -0.187000 
     24 H          26.911000   27.834000   13.494000 H         1 <1>         0.166100 
     25 C          26.392000   25.799000   13.016000 C.ar      1 <1>        -0.141800 
     26 H          26.210000   26.010000   11.965000 H         1 <1>         0.204700 
     27 C          27.615000   22.035000   17.109000 C.ar      1 <1>        -0.450300 
     28 H          28.566000   22.450000   16.796000 H         1 <1>         0.273000 
     29 C          27.374000   21.208000   18.228000 C.ar      1 <1>        -0.132100 
     30 N          26.081000   20.830000   18.275000 N.ar      1 <1>        -0.264100 
     31 C          28.392000   20.753000   19.239000 C.3       1 <1>         1.470500 
     32 F          29.631000   21.288000   19.022000 F         1 <1>        -0.450700 
     33 F          28.558000   19.397000   19.237000 F         1 <1>        -0.441700 
     34 F          28.049000   21.096000   20.516000 F         1 <1>        -0.448600 
     35 S          19.488000   21.053000   16.802000 S.o2      1 <1>         2.421700 
     36 O          18.942000   22.322000   16.351000 O.2       1 <1>        -0.985200 
     37 O          18.971000   20.407000   17.995000 O.2       1 <1>        -0.982700 
     38 N          19.309000   19.978000   15.530000 N.pl3     1 <1>        -1.306700 
     39 H          18.828000   20.417000   14.740000 H         1 <1>         0.487900 
     40 H          18.830000   19.126000   15.831000 H         1 <1>         0.488500 
@<TRIPOS>BOND
     1    1    2 ar   
     2    2    3 1    
     3    2    4 ar   
     4    4    5 1    
     5    4    6 ar   
     6    6    7 ar   
     7    7    8 1    
     8    7    9 ar   
     9    9   10 1    
    10    9    1 ar   
    11    6   11 1    
    12   11   12 ar   
    13   12   13 1    
    14   13   14 ar   
    15   14   15 1    
    16   14   16 ar   
    17   16   17 ar   
    18   17   18 ar   
    19   18   13 ar   
    20   18   19 ar   
    21   19   20 1    
    22   19   21 ar   
    23   21   22 1    
    24   21   23 ar   
    25   23   24 1    
    26   23   25 ar   
    27   25   26 1    
    28   25   17 ar   
    29   12   27 ar   
    30   27   28 1    
    31   27   29 ar   
    32   29   30 ar   
    33   30   11 ar   
    34   29   31 1    
    35   31   32 1    
    36   31   33 1    
    37   31   34 1    
    38    1   35 1    
    39   35   36 2    
    40   35   37 2    
    41   35   38 1    
    42   38   39 1    
    43   38   40 1    
@<TRIPOS>SUBSTRUCTURE
     1 ****        1 TEMP              0 ****  ****    0 ROOT 
@<TRIPOS>SET
UNITY_3DHIT     STATIC     ATOMS    <user>   **** Atoms matching 3D or FLEX Search
0
