#	Name:			8-1ai
#	Creating user name:	jeff
#	Creation time:		Fri Dec 13 09:55:54 2002

#	Modifying user name:	jeff
#	Modification time:	Fri Dec 13 09:55:56 2002

@<TRIPOS>MOLECULE
8-1ai
   36    38     1     0     1
SMALL
USER_CHARGES
****
From 3DB ct
@<TRIPOS>ATOM
      1 C          21.273000   21.191000   16.892000 C.ar      1 <1>        -0.632400 
      2 C          21.978000   20.328000   17.731000 C.ar      1 <1>         0.057900 
      3 H          21.461000   19.570000   18.315000 H         1 <1>         0.186800 
      4 C          23.370000   20.435000   17.821000 C.ar      1 <1>        -0.189300 
      5 H          23.897000   19.742000   18.477000 H         1 <1>         0.178400 
      6 C          24.069000   21.397000   17.067000 C.ar      1 <1>         0.297800 
      7 C          23.342000   22.276000   16.252000 C.ar      1 <1>        -0.293000 
      8 H          23.815000   23.087000   15.705000 H         1 <1>         0.161100 
      9 C          21.948000   22.172000   16.162000 C.ar      1 <1>         0.130600 
     10 H          21.401000   22.865000   15.526000 H         1 <1>         0.166600 
     11 N          25.493000   21.477000   17.192000 N.pl3     1 <1>         0.073300 
     12 C          26.433000   22.160000   16.427000 C.ar      1 <1>        -0.098300 
     13 C          26.225000   22.758000   15.118000 C.ar      1 <1>         0.656800 
     14 N          25.754000   21.899000   14.182000 N.ar      1 <1>        -0.670200 
     15 C          25.517000   22.407000   12.949000 C.ar      1 <1>         0.348700 
     16 H          25.146000   21.700000   12.210000 H         1 <1>         0.117800 
     17 C          25.718000   23.736000   12.613000 C.ar      1 <1>        -0.439900 
     18 H          25.511000   24.089000   11.608000 H         1 <1>         0.207300 
     19 C          26.186000   24.601000   13.596000 C.ar      1 <1>         0.143100 
     20 H          26.348000   25.652000   13.370000 H         1 <1>         0.131900 
     21 C          26.439000   24.110000   14.874000 C.ar      1 <1>        -0.502900 
     22 H          26.793000   24.777000   15.655000 H         1 <1>         0.225200 
     23 C          27.617000   22.092000   17.138000 C.ar      1 <1>        -0.302200 
     24 H          28.561000   22.543000   16.855000 H         1 <1>         0.238200 
     25 C          27.371000   21.253000   18.245000 C.ar      1 <1>        -0.162800 
     26 N          26.095000   20.822000   18.236000 N.ar      1 <1>        -0.275900 
     27 C          28.369000   20.832000   19.290000 C.3       1 <1>         1.457800 
     28 F          29.548000   21.516000   19.204000 F         1 <1>        -0.450200 
     29 F          28.690000   19.508000   19.199000 F         1 <1>        -0.433800 
     30 F          27.910000   21.029000   20.562000 F         1 <1>        -0.444900 
     31 S          19.506000   21.091000   16.798000 S.o2      1 <1>         2.413700 
     32 O          18.977000   22.380000   16.388000 O.2       1 <1>        -0.989000 
     33 O          18.996000   20.431000   17.988000 O.2       1 <1>        -0.981500 
     34 N          19.283000   20.033000   15.519000 N.pl3     1 <1>        -1.301300 
     35 H          18.784000   20.485000   14.748000 H         1 <1>         0.486000 
     36 H          18.805000   19.181000   15.824000 H         1 <1>         0.488800 
@<TRIPOS>BOND
     1    1    2 ar   
     2    2    3 1    
     3    2    4 ar   
     4    4    5 1    
     5    4    6 ar   
     6    6    7 ar   
     7    7    8 1    
     8    7    9 ar   
     9    9   10 1    
    10    9    1 ar   
    11    6   11 1    
    12   11   12 ar   
    13   12   13 1    
    14   13   14 ar   
    15   14   15 ar   
    16   15   16 1    
    17   15   17 ar   
    18   17   18 1    
    19   17   19 ar   
    20   19   20 1    
    21   19   21 ar   
    22   21   22 1    
    23   21   13 ar   
    24   12   23 ar   
    25   23   24 1    
    26   23   25 ar   
    27   25   26 ar   
    28   26   11 ar   
    29   25   27 1    
    30   27   28 1    
    31   27   29 1    
    32   27   30 1    
    33    1   31 1    
    34   31   32 2    
    35   31   33 2    
    36   31   34 1    
    37   34   35 1    
    38   34   36 1    
@<TRIPOS>SUBSTRUCTURE
     1 ****        1 TEMP              0 ****  ****    0 ROOT 
@<TRIPOS>SET
UNITY_3DHIT     STATIC     ATOMS    <user>   **** Atoms matching 3D or FLEX Search
0
