#	Name:			8-1ag
#	Creating user name:	jeff
#	Creation time:		Fri Dec 13 09:53:47 2002

#	Modifying user name:	jeff
#	Modification time:	Fri Dec 13 09:53:49 2002

@<TRIPOS>MOLECULE
8-1ag
   37    39     1     0     1
SMALL
USER_CHARGES
****
From 3DB ct
@<TRIPOS>ATOM
      1 C          21.241000   21.176000   16.946000 C.ar      1 <1>        -0.636600 
      2 C          21.963000   20.320000   17.774000 C.ar      1 <1>         0.084300 
      3 H          21.462000   19.553000   18.361000 H         1 <1>         0.179800 
      4 C          23.354000   20.450000   17.857000 C.ar      1 <1>        -0.192400 
      5 H          23.890000   19.763000   18.512000 H         1 <1>         0.183300 
      6 C          24.041000   21.424000   17.104000 C.ar      1 <1>         0.271500 
      7 C          23.295000   22.280000   16.284000 C.ar      1 <1>        -0.376100 
      8 H          23.741000   23.085000   15.714000 H         1 <1>         0.178100 
      9 C          21.901000   22.153000   16.199000 C.ar      1 <1>         0.168000 
     10 H          21.340000   22.830000   15.557000 H         1 <1>         0.164400 
     11 N          25.468000   21.512000   17.227000 N.pl3     1 <1>         0.158300 
     12 C          26.423000   22.134000   16.420000 C.ar      1 <1>        -0.272800 
     13 C          26.222000   22.755000   15.109000 C.ar      1 <1>         0.644700 
     14 C          26.472000   24.120000   14.874000 C.ar      1 <1>        -0.621900 
     15 C          26.294000   24.661000   13.596000 C.ar      1 <1>         0.083200 
     16 H          26.479000   25.717000   13.412000 H         1 <1>         0.109700 
     17 C          25.874000   23.847000   12.543000 C.ar      1 <1>         0.153600 
     18 H          25.738000   24.277000   11.553000 H         1 <1>         0.099300 
     19 C          25.635000   22.493000   12.767000 C.ar      1 <1>        -0.549600 
     20 C          25.811000   21.944000   14.038000 C.ar      1 <1>        -0.022700 
     21 H          25.629000   20.883000   14.195000 H         1 <1>         0.138900 
     22 Cl         25.122000   21.489000   11.466000 Cl        1 <1>         0.146300 
     23 Cl         26.976000   25.189000   16.137000 Cl        1 <1>         0.168300 
     24 C          27.633000   21.978000   17.072000 C.ar      1 <1>        -0.374300 
     25 H          28.597000   22.340000   16.735000 H         1 <1>         0.256800 
     26 C          27.370000   21.223000   18.231000 C.ar      1 <1>        -0.035300 
     27 N          26.065000   20.906000   18.303000 N.ar      1 <1>        -0.337500 
     28 C          28.378000   20.778000   19.256000 C.3       1 <1>         1.419600 
     29 F          29.563000   21.452000   19.160000 F         1 <1>        -0.438200 
     30 F          28.684000   19.451000   19.140000 F         1 <1>        -0.431900 
     31 F          27.943000   20.960000   20.538000 F         1 <1>        -0.439300 
     32 S          19.483000   21.011000   16.804000 S.o2      1 <1>         2.403800 
     33 O          18.911000   22.272000   16.364000 O.2       1 <1>        -0.981600 
     34 O          18.975000   20.346000   17.991000 O.2       1 <1>        -0.973800 
     35 N          19.330000   19.938000   15.527000 N.pl3     1 <1>        -1.314800 
     36 H          18.842000   20.371000   14.739000 H         1 <1>         0.490400 
     37 H          18.868000   19.075000   15.823000 H         1 <1>         0.496600 
@<TRIPOS>BOND
     1    1    2 ar   
     2    2    3 1    
     3    2    4 ar   
     4    4    5 1    
     5    4    6 ar   
     6    6    7 ar   
     7    7    8 1    
     8    7    9 ar   
     9    9   10 1    
    10    9    1 ar   
    11    6   11 1    
    12   11   12 ar   
    13   12   13 1    
    14   13   14 ar   
    15   14   15 ar   
    16   15   16 1    
    17   15   17 ar   
    18   17   18 1    
    19   17   19 ar   
    20   19   20 ar   
    21   20   21 1    
    22   20   13 ar   
    23   19   22 1    
    24   14   23 1    
    25   12   24 ar   
    26   24   25 1    
    27   24   26 ar   
    28   26   27 ar   
    29   27   11 ar   
    30   26   28 1    
    31   28   29 1    
    32   28   30 1    
    33   28   31 1    
    34    1   32 1    
    35   32   33 2    
    36   32   34 2    
    37   32   35 1    
    38   35   36 1    
    39   35   37 1    
@<TRIPOS>SUBSTRUCTURE
     1 ****        1 TEMP              0 ****  ****    0 ROOT 
@<TRIPOS>SET
UNITY_3DHIT     STATIC     ATOMS    <user>   **** Atoms matching 3D or FLEX Search
0
