#	Name:			8-1aj
#	Creating user name:	jeff
#	Creation time:		Fri Dec 13 09:55:56 2002

#	Modifying user name:	jeff
#	Modification time:	Fri Dec 13 09:55:58 2002

@<TRIPOS>MOLECULE
8-1aj
   36    38     1     0     1
SMALL
USER_CHARGES
****
From 3DB ct
@<TRIPOS>ATOM
      1 C          21.260000   21.175000   16.909000 C.ar      1 <1>        -0.639900 
      2 C          21.970000   20.317000   17.749000 C.ar      1 <1>         0.100600 
      3 H          21.457000   19.556000   18.333000 H         1 <1>         0.179600 
      4 C          23.361000   20.432000   17.840000 C.ar      1 <1>        -0.248200 
      5 H          23.890000   19.743000   18.497000 H         1 <1>         0.195900 
      6 C          24.056000   21.399000   17.088000 C.ar      1 <1>         0.344500 
      7 C          23.325000   22.270000   16.269000 C.ar      1 <1>        -0.358900 
      8 H          23.791000   23.079000   15.716000 H         1 <1>         0.189500 
      9 C          21.931000   22.158000   16.178000 C.ar      1 <1>         0.131600 
     10 H          21.381000   22.846000   15.539000 H         1 <1>         0.175000 
     11 N          25.480000   21.485000   17.217000 N.pl3     1 <1>         0.052100 
     12 C          26.429000   22.145000   16.433000 C.ar      1 <1>         0.076500 
     13 C          26.237000   22.728000   15.108000 C.ar      1 <1>        -0.354100 
     14 C          25.772000   21.962000   14.040000 C.ar      1 <1>         0.477000 
     15 H          25.564000   20.901000   14.163000 H         1 <1>         0.092100 
     16 N          25.549000   22.447000   12.790000 N.ar      1 <1>        -0.722800 
     17 C          25.793000   23.765000   12.601000 C.ar      1 <1>         0.495100 
     18 H          25.612000   24.141000   11.596000 H         1 <1>         0.092700 
     19 C          26.241000   24.613000   13.600000 C.ar      1 <1>        -0.596500 
     20 H          26.413000   25.666000   13.394000 H         1 <1>         0.233800 
     21 C          26.459000   24.087000   14.871000 C.ar      1 <1>         0.255000 
     22 H          26.800000   24.745000   15.668000 H         1 <1>         0.118600 
     23 C          27.618000   22.063000   17.136000 C.ar      1 <1>        -0.357400 
     24 H          28.573000   22.480000   16.838000 H         1 <1>         0.256500 
     25 C          27.362000   21.260000   18.266000 C.ar      1 <1>        -0.156100 
     26 N          26.077000   20.862000   18.282000 N.ar      1 <1>        -0.300500 
     27 C          28.359000   20.842000   19.314000 C.3       1 <1>         1.488200 
     28 F          29.556000   21.490000   19.195000 F         1 <1>        -0.455500 
     29 F          28.643000   19.506000   19.258000 F         1 <1>        -0.442900 
     30 F          27.921000   21.088000   20.584000 F         1 <1>        -0.448700 
     31 S          19.494000   21.064000   16.815000 S.o2      1 <1>         2.426800 
     32 O          18.957000   22.349000   16.404000 O.2       1 <1>        -0.989000 
     33 O          18.989000   20.403000   18.006000 O.2       1 <1>        -0.982800 
     34 N          19.277000   20.003000   15.537000 N.pl3     1 <1>        -1.305500 
     35 H          18.773000   20.451000   14.767000 H         1 <1>         0.487500 
     36 H          18.805000   19.148000   15.844000 H         1 <1>         0.490300 
@<TRIPOS>BOND
     1    1    2 ar   
     2    2    3 1    
     3    2    4 ar   
     4    4    5 1    
     5    4    6 ar   
     6    6    7 ar   
     7    7    8 1    
     8    7    9 ar   
     9    9   10 1    
    10    9    1 ar   
    11    6   11 1    
    12   11   12 ar   
    13   12   13 1    
    14   13   14 ar   
    15   14   15 1    
    16   14   16 ar   
    17   16   17 ar   
    18   17   18 1    
    19   17   19 ar   
    20   19   20 1    
    21   19   21 ar   
    22   21   22 1    
    23   21   13 ar   
    24   12   23 ar   
    25   23   24 1    
    26   23   25 ar   
    27   25   26 ar   
    28   26   11 ar   
    29   25   27 1    
    30   27   28 1    
    31   27   29 1    
    32   27   30 1    
    33    1   31 1    
    34   31   32 2    
    35   31   33 2    
    36   31   34 1    
    37   34   35 1    
    38   34   36 1    
@<TRIPOS>SUBSTRUCTURE
     1 ****        1 TEMP              0 ****  ****    0 ROOT 
@<TRIPOS>SET
UNITY_3DHIT     STATIC     ATOMS    <user>   **** Atoms matching 3D or FLEX Search
0
