#	Name:			8-1aq
#	Creating user name:	jeff
#	Creation time:		Fri Dec 13 09:56:10 2002

#	Modifying user name:	jeff
#	Modification time:	Fri Dec 13 09:56:13 2002

@<TRIPOS>MOLECULE
8-1aq
   44    47     1     0     1
SMALL
USER_CHARGES
****
From 3DB ct
@<TRIPOS>ATOM
      1 C          21.260000   21.174000   16.909000 C.ar      1 <1>        -0.618100 
      2 C          21.971000   20.319000   17.750000 C.ar      1 <1>         0.057800 
      3 H          21.460000   19.558000   18.335000 H         1 <1>         0.188400 
      4 C          23.362000   20.438000   17.841000 C.ar      1 <1>        -0.210800 
      5 H          23.892000   19.750000   18.500000 H         1 <1>         0.187800 
      6 C          24.055000   21.405000   17.089000 C.ar      1 <1>         0.318400 
      7 C          23.322000   22.275000   16.270000 C.ar      1 <1>        -0.255300 
      8 H          23.787000   23.084000   15.716000 H         1 <1>         0.148100 
      9 C          21.929000   22.159000   16.178000 C.ar      1 <1>         0.073900 
     10 H          21.377000   22.844000   15.538000 H         1 <1>         0.184900 
     11 N          25.480000   21.492000   17.216000 N.pl3     1 <1>        -0.044100 
     12 C          26.428000   22.147000   16.428000 C.ar      1 <1>         0.266500 
     13 C          26.232000   22.733000   15.103000 C.ar      1 <1>        -0.146600 
     14 C          25.766000   21.930000   14.041000 C.ar      1 <1>        -0.074100 
     15 H          25.573000   20.870000   14.201000 H         1 <1>         0.157900 
     16 C          25.547000   22.471000   12.770000 C.ar      1 <1>        -0.319300 
     17 H          25.183000   21.844000   11.959000 H         1 <1>         0.208300 
     18 C          25.801000   23.817000   12.576000 C.ar      1 <1>         0.160400 
     19 C          26.250000   24.624000   13.626000 C.ar      1 <1>         0.073000 
     20 C          26.456000   24.103000   14.893000 C.ar      1 <1>        -0.191500 
     21 H          26.784000   24.749000   15.704000 H         1 <1>         0.188400 
     22 C          26.400000   26.045000   13.179000 C.3       1 <1>        -0.248500 
     23 H          27.319000   26.506000   13.552000 H         1 <1>         0.093900 
     24 H          25.530000   26.632000   13.490000 H         1 <1>         0.110500 
     25 C          26.439000   25.874000   11.653000 C.3       1 <1>         0.027200 
     26 H          26.081000   26.762000   11.124000 H         1 <1>         0.033800 
     27 H          27.478000   25.706000   11.337000 H         1 <1>         0.034400 
     28 C          25.608000   24.623000   11.329000 C.3       1 <1>        -0.291700 
     29 H          24.550000   24.873000   11.202000 H         1 <1>         0.120300 
     30 H          25.985000   24.114000   10.438000 H         1 <1>         0.107200 
     31 C          27.620000   22.060000   17.124000 C.ar      1 <1>        -0.435400 
     32 H          28.575000   22.472000   16.819000 H         1 <1>         0.280900 
     33 C          27.366000   21.261000   18.256000 C.ar      1 <1>        -0.178300 
     34 N          26.078000   20.870000   18.282000 N.ar      1 <1>        -0.278100 
     35 C          28.365000   20.840000   19.300000 C.3       1 <1>         1.514000 
     36 F          29.584000   21.437000   19.139000 F         1 <1>        -0.460700 
     37 F          28.597000   19.494000   19.286000 F         1 <1>        -0.450300 
     38 F          27.959000   21.145000   20.568000 F         1 <1>        -0.454500 
     39 S          19.494000   21.058000   16.811000 S.o2      1 <1>         2.429400 
     40 O          18.955000   22.341000   16.397000 O.2       1 <1>        -0.990800 
     41 O          18.989000   20.397000   18.002000 O.2       1 <1>        -0.985200 
     42 N          19.283000   19.994000   15.535000 N.pl3     1 <1>        -1.304000 
     43 H          18.784000   20.441000   14.761000 H         1 <1>         0.484200 
     44 H          18.810000   19.140000   15.841000 H         1 <1>         0.487900 
@<TRIPOS>BOND
     1    1    2 ar   
     2    2    3 1    
     3    2    4 ar   
     4    4    5 1    
     5    4    6 ar   
     6    6    7 ar   
     7    7    8 1    
     8    7    9 ar   
     9    9   10 1    
    10    9    1 ar   
    11    6   11 1    
    12   11   12 ar   
    13   12   13 1    
    14   13   14 ar   
    15   14   15 1    
    16   14   16 ar   
    17   16   17 1    
    18   16   18 ar   
    19   18   19 ar   
    20   19   20 ar   
    21   20   21 1    
    22   20   13 ar   
    23   19   22 1    
    24   22   23 1    
    25   22   24 1    
    26   22   25 1    
    27   25   26 1    
    28   25   27 1    
    29   25   28 1    
    30   28   29 1    
    31   28   30 1    
    32   28   18 1    
    33   12   31 ar   
    34   31   32 1    
    35   31   33 ar   
    36   33   34 ar   
    37   34   11 ar   
    38   33   35 1    
    39   35   36 1    
    40   35   37 1    
    41   35   38 1    
    42    1   39 1    
    43   39   40 2    
    44   39   41 2    
    45   39   42 1    
    46   42   43 1    
    47   42   44 1    
@<TRIPOS>SUBSTRUCTURE
     1 ****        1 TEMP              0 ****  ****    0 ROOT 
@<TRIPOS>SET
UNITY_3DHIT     STATIC     ATOMS    <user>   **** Atoms matching 3D or FLEX Search
0
