#	Name:			8-1ak
#	Creating user name:	jeff
#	Creation time:		Fri Dec 13 09:55:58 2002

#	Modifying user name:	jeff
#	Modification time:	Fri Dec 13 09:56:00 2002

@<TRIPOS>MOLECULE
8-1ak
   36    38     1     0     1
SMALL
USER_CHARGES
****
From 3DB ct
@<TRIPOS>ATOM
      1 C          21.251000   21.169000   16.923000 C.ar      1 <1>        -0.622300 
      2 C          21.966000   20.314000   17.763000 C.ar      1 <1>         0.079200 
      3 H          21.456000   19.552000   18.349000 H         1 <1>         0.183400 
      4 C          23.357000   20.433000   17.850000 C.ar      1 <1>        -0.221100 
      5 H          23.890000   19.747000   18.507000 H         1 <1>         0.191300 
      6 C          24.047000   21.400000   17.093000 C.ar      1 <1>         0.313900 
      7 C          23.311000   22.270000   16.277000 C.ar      1 <1>        -0.321000 
      8 H          23.775000   23.079000   15.723000 H         1 <1>         0.174100 
      9 C          21.917000   22.154000   16.191000 C.ar      1 <1>         0.107300 
     10 H          21.363000   22.840000   15.553000 H         1 <1>         0.180500 
     11 N          25.472000   21.488000   17.214000 N.pl3     1 <1>         0.036700 
     12 C          26.412000   22.156000   16.428000 C.ar      1 <1>        -0.004600 
     13 C          26.211000   22.744000   15.104000 C.ar      1 <1>         0.534100 
     14 C          26.467000   24.099000   14.887000 C.ar      1 <1>        -0.622500 
     15 H          26.790000   24.753000   15.691000 H         1 <1>         0.239700 
     16 C          26.292000   24.609000   13.611000 C.ar      1 <1>         0.489300 
     17 H          26.476000   25.662000   13.408000 H         1 <1>         0.092200 
     18 N          25.896000   23.866000   12.551000 N.ar      1 <1>        -0.712200 
     19 C          25.670000   22.552000   12.783000 C.ar      1 <1>         0.483300 
     20 H          25.360000   21.966000   11.920000 H         1 <1>         0.097000 
     21 C          25.816000   21.952000   14.023000 C.ar      1 <1>        -0.661400 
     22 H          25.627000   20.889000   14.133000 H         1 <1>         0.248200 
     23 C          27.607000   22.074000   17.121000 C.ar      1 <1>        -0.384200 
     24 H          28.557000   22.497000   16.819000 H         1 <1>         0.264300 
     25 C          27.362000   21.259000   18.245000 C.ar      1 <1>        -0.130600 
     26 N          26.078000   20.855000   18.268000 N.ar      1 <1>        -0.295400 
     27 C          28.371000   20.832000   19.277000 C.3       1 <1>         1.474400 
     28 F          29.528000   21.556000   19.218000 F         1 <1>        -0.451500 
     29 F          28.735000   19.522000   19.138000 F         1 <1>        -0.441700 
     30 F          27.907000   20.966000   20.555000 F         1 <1>        -0.446500 
     31 S          19.486000   21.051000   16.831000 S.o2      1 <1>         2.422300 
     32 O          18.944000   22.333000   16.418000 O.2       1 <1>        -0.987100 
     33 O          18.983000   20.389000   18.022000 O.2       1 <1>        -0.981300 
     34 N          19.272000   19.987000   15.554000 N.pl3     1 <1>        -1.302700 
     35 H          18.772000   20.433000   14.781000 H         1 <1>         0.485800 
     36 H          18.799000   19.134000   15.862000 H         1 <1>         0.489100 
@<TRIPOS>BOND
     1    1    2 ar   
     2    2    3 1    
     3    2    4 ar   
     4    4    5 1    
     5    4    6 ar   
     6    6    7 ar   
     7    7    8 1    
     8    7    9 ar   
     9    9   10 1    
    10    9    1 ar   
    11    6   11 1    
    12   11   12 ar   
    13   12   13 1    
    14   13   14 ar   
    15   14   15 1    
    16   14   16 ar   
    17   16   17 1    
    18   16   18 ar   
    19   18   19 ar   
    20   19   20 1    
    21   19   21 ar   
    22   21   22 1    
    23   21   13 ar   
    24   12   23 ar   
    25   23   24 1    
    26   23   25 ar   
    27   25   26 ar   
    28   26   11 ar   
    29   25   27 1    
    30   27   28 1    
    31   27   29 1    
    32   27   30 1    
    33    1   31 1    
    34   31   32 2    
    35   31   33 2    
    36   31   34 1    
    37   34   35 1    
    38   34   36 1    
@<TRIPOS>SUBSTRUCTURE
     1 ****        1 TEMP              0 ****  ****    0 ROOT 
@<TRIPOS>SET
UNITY_3DHIT     STATIC     ATOMS    <user>   **** Atoms matching 3D or FLEX Search
0
