#	Name:			8-1ad
#	Creating user name:	jeff
#	Creation time:		Fri Dec 13 09:53:40 2002

#	Modifying user name:	jeff
#	Modification time:	Fri Dec 13 09:53:42 2002

@<TRIPOS>MOLECULE
8-1ad
   44    46     1     0     1
SMALL
USER_CHARGES
****
From 3DB ct
@<TRIPOS>ATOM
      1 C          21.249000   21.188000   16.947000 C.ar      1 <1>        -0.632500 
      2 C          21.965000   20.323000   17.774000 C.ar      1 <1>         0.069900 
      3 H          21.456000   19.561000   18.360000 H         1 <1>         0.187300 
      4 C          23.357000   20.438000   17.857000 C.ar      1 <1>        -0.216200 
      5 H          23.891000   19.748000   18.509000 H         1 <1>         0.188300 
      6 C          24.047000   21.405000   17.100000 C.ar      1 <1>         0.310900 
      7 C          23.310000   22.275000   16.285000 C.ar      1 <1>        -0.270400 
      8 H          23.773000   23.082000   15.727000 H         1 <1>         0.149000 
      9 C          21.917000   22.161000   16.201000 C.ar      1 <1>         0.104200 
     10 H          21.362000   22.847000   15.563000 H         1 <1>         0.179900 
     11 N          25.472000   21.491000   17.218000 N.pl3     1 <1>        -0.024600 
     12 C          26.414000   22.147000   16.423000 C.ar      1 <1>         0.178000 
     13 C          26.210000   22.732000   15.099000 C.ar      1 <1>        -0.184000 
     14 C          26.459000   24.092000   14.886000 C.ar      1 <1>         0.301900 
     15 H          26.773000   24.725000   15.714000 H         1 <1>         0.077300 
     16 C          26.295000   24.645000   13.615000 C.ar      1 <1>        -0.735600 
     17 C          25.905000   23.836000   12.537000 C.ar      1 <1>         0.638600 
     18 C          25.617000   22.477000   12.740000 C.ar      1 <1>        -0.017700 
     19 C          25.804000   21.931000   14.021000 C.ar      1 <1>        -0.169200 
     20 H          25.622000   20.867000   14.179000 H         1 <1>         0.212400 
     21 C          25.161000   21.584000   11.620000 C.3       1 <1>        -0.347300 
     22 H          24.608000   20.721000   12.005000 H         1 <1>         0.100500 
     23 H          26.024000   21.219000   11.055000 H         1 <1>         0.122900 
     24 H          24.486000   22.117000   10.942000 H         1 <1>         0.135700 
     25 O          25.726000   24.381000   11.289000 O.3       1 <1>        -0.525100 
     26 C          26.947000   24.321000   10.542000 C.3       1 <1>         0.156300 
     27 H          27.250000   23.284000   10.363000 H         1 <1>         0.010100 
     28 H          27.753000   24.868000   11.042000 H         1 <1>         0.014400 
     29 H          26.767000   24.793000    9.572000 H         1 <1>         0.088900 
     30 Cl         26.571000   26.340000   13.418000 Cl        1 <1>         0.177700 
     31 C          27.611000   22.060000   17.110000 C.ar      1 <1>        -0.351300 
     32 H          28.564000   22.473000   16.799000 H         1 <1>         0.253700 
     33 C          27.366000   21.259000   18.245000 C.ar      1 <1>        -0.202000 
     34 N          26.078000   20.867000   18.278000 N.ar      1 <1>        -0.260800 
     35 C          28.374000   20.839000   19.280000 C.3       1 <1>         1.499600 
     36 F          29.584000   21.455000   19.123000 F         1 <1>        -0.455300 
     37 F          28.625000   19.496000   19.247000 F         1 <1>        -0.445500 
     38 F          27.968000   21.122000   20.553000 F         1 <1>        -0.448500 
     39 S          19.489000   21.036000   16.809000 S.o2      1 <1>         2.426400 
     40 O          18.932000   22.289000   16.330000 O.2       1 <1>        -0.987300 
     41 O          18.971000   20.412000   18.013000 O.2       1 <1>        -0.982700 
     42 N          19.329000   19.926000   15.565000 N.pl3     1 <1>        -1.297900 
     43 H          18.843000   20.337000   14.764000 H         1 <1>         0.484000 
     44 H          18.862000   19.075000   15.888000 H         1 <1>         0.486000 
@<TRIPOS>BOND
     1    1    2 ar   
     2    2    3 1    
     3    2    4 ar   
     4    4    5 1    
     5    4    6 ar   
     6    6    7 ar   
     7    7    8 1    
     8    7    9 ar   
     9    9   10 1    
    10    9    1 ar   
    11    6   11 1    
    12   11   12 ar   
    13   12   13 1    
    14   13   14 ar   
    15   14   15 1    
    16   14   16 ar   
    17   16   17 ar   
    18   17   18 ar   
    19   18   19 ar   
    20   19   20 1    
    21   19   13 ar   
    22   18   21 1    
    23   21   22 1    
    24   21   23 1    
    25   21   24 1    
    26   17   25 1    
    27   25   26 1    
    28   26   27 1    
    29   26   28 1    
    30   26   29 1    
    31   16   30 1    
    32   12   31 ar   
    33   31   32 1    
    34   31   33 ar   
    35   33   34 ar   
    36   34   11 ar   
    37   33   35 1    
    38   35   36 1    
    39   35   37 1    
    40   35   38 1    
    41    1   39 1    
    42   39   40 2    
    43   39   41 2    
    44   39   42 1    
    45   42   43 1    
    46   42   44 1    
@<TRIPOS>SUBSTRUCTURE
     1 ****        1 TEMP              0 ****  ****    0 ROOT 
@<TRIPOS>SET
UNITY_3DHIT     STATIC     ATOMS    <user>   **** Atoms matching 3D or FLEX Search
0
