#	Name:			8-1ap
#	Creating user name:	jeff
#	Creation time:		Fri Dec 13 09:56:08 2002

#	Modifying user name:	jeff
#	Modification time:	Fri Dec 13 09:56:10 2002

@<TRIPOS>MOLECULE
8-1ap
   41    43     1     0     1
SMALL
USER_CHARGES
****
From 3DB ct
@<TRIPOS>ATOM
      1 C          21.264000   21.178000   16.911000 C.ar      1 <1>        -0.630200 
      2 C          21.977000   20.321000   17.749000 C.ar      1 <1>         0.051500 
      3 H          21.465000   19.560000   18.335000 H         1 <1>         0.189300 
      4 C          23.369000   20.435000   17.835000 C.ar      1 <1>        -0.193300 
      5 H          23.901000   19.747000   18.491000 H         1 <1>         0.184900 
      6 C          24.061000   21.401000   17.080000 C.ar      1 <1>         0.306100 
      7 C          23.326000   22.274000   16.266000 C.ar      1 <1>        -0.306600 
      8 H          23.794000   23.082000   15.712000 H         1 <1>         0.168800 
      9 C          21.933000   22.162000   16.178000 C.ar      1 <1>         0.128700 
     10 H          21.381000   22.850000   15.542000 H         1 <1>         0.169900 
     11 N          25.485000   21.491000   17.207000 N.pl3     1 <1>        -0.023000 
     12 C          26.439000   22.161000   16.439000 C.ar      1 <1>         0.120900 
     13 C          26.187000   22.684000   15.133000 C.2       1 <1>        -0.026900 
     14 C          26.462000   23.992000   14.948000 C.2       1 <1>        -0.070700 
     15 H          26.832000   24.605000   15.771000 H         1 <1>         0.110000 
     16 C          26.291000   24.718000   13.644000 C.3       1 <1>        -0.036800 
     17 H          27.287000   24.967000   13.258000 H         1 <1>         0.058800 
     18 H          25.770000   25.666000   13.821000 H         1 <1>         0.040700 
     19 C          25.522000   23.915000   12.596000 C.3       1 <1>        -0.077700 
     20 H          25.673000   24.358000   11.606000 H         1 <1>         0.029700 
     21 H          24.447000   23.966000   12.808000 H         1 <1>         0.055500 
     22 C          25.968000   22.459000   12.595000 C.3       1 <1>        -0.064600 
     23 H          27.034000   22.400000   12.337000 H         1 <1>         0.058900 
     24 H          25.423000   21.898000   11.829000 H         1 <1>         0.036200 
     25 C          25.734000   21.820000   13.965000 C.3       1 <1>        -0.095300 
     26 H          24.667000   21.596000   14.076000 H         1 <1>         0.064200 
     27 H          26.263000   20.859000   13.995000 H         1 <1>         0.058800 
     28 C          27.617000   22.108000   17.157000 C.ar      1 <1>        -0.370000 
     29 H          28.567000   22.544000   16.871000 H         1 <1>         0.246800 
     30 C          27.358000   21.296000   18.280000 C.ar      1 <1>        -0.162700 
     31 N          26.082000   20.865000   18.273000 N.ar      1 <1>        -0.281500 
     32 C          28.347000   20.896000   19.342000 C.3       1 <1>         1.487600 
     33 F          29.533000   21.567000   19.241000 F         1 <1>        -0.452500 
     34 F          28.656000   19.567000   19.291000 F         1 <1>        -0.443900 
     35 F          27.884000   21.134000   20.606000 F         1 <1>        -0.452500 
     36 S          19.498000   21.067000   16.822000 S.o2      1 <1>         2.418200 
     37 O          18.959000   22.351000   16.411000 O.2       1 <1>        -0.989200 
     38 O          18.997000   20.406000   18.015000 O.2       1 <1>        -0.980600 
     39 N          19.278000   20.005000   15.545000 N.pl3     1 <1>        -1.298700 
     40 H          18.776000   20.455000   14.775000 H         1 <1>         0.485200 
     41 H          18.804000   19.152000   15.852000 H         1 <1>         0.486000 
@<TRIPOS>BOND
     1    1    2 ar   
     2    2    3 1    
     3    2    4 ar   
     4    4    5 1    
     5    4    6 ar   
     6    6    7 ar   
     7    7    8 1    
     8    7    9 ar   
     9    9   10 1    
    10    9    1 ar   
    11    6   11 1    
    12   11   12 ar   
    13   12   13 1    
    14   13   14 2    
    15   14   15 1    
    16   14   16 1    
    17   16   17 1    
    18   16   18 1    
    19   16   19 1    
    20   19   20 1    
    21   19   21 1    
    22   19   22 1    
    23   22   23 1    
    24   22   24 1    
    25   22   25 1    
    26   25   26 1    
    27   25   27 1    
    28   25   13 1    
    29   12   28 ar   
    30   28   29 1    
    31   28   30 ar   
    32   30   31 ar   
    33   31   11 ar   
    34   30   32 1    
    35   32   33 1    
    36   32   34 1    
    37   32   35 1    
    38    1   36 1    
    39   36   37 2    
    40   36   38 2    
    41   36   39 1    
    42   39   40 1    
    43   39   41 1    
@<TRIPOS>SUBSTRUCTURE
     1 ****        1 TEMP              0 ****  ****    0 ROOT 
@<TRIPOS>SET
UNITY_3DHIT     STATIC     ATOMS    <user>   **** Atoms matching 3D or FLEX Search
0
@<TRIPOS>UNITY_BOND_ATTR
14 1
S I
