#	Name:			8-1b
#	Creating user name:	jeff
#	Creation time:		Fri Dec 13 09:52:36 2002

#	Modifying user name:	jeff
#	Modification time:	Fri Dec 13 09:52:38 2002

@<TRIPOS>MOLECULE
8-1b
   37    39     1     0     1
SMALL
USER_CHARGES
****
From 3DB ct
@<TRIPOS>ATOM
      1 C          21.248000   21.184000   16.945000 C.ar      1 <1>        -0.627500 
      2 C          21.965000   20.320000   17.772000 C.ar      1 <1>         0.074300 
      3 H          21.459000   19.557000   18.359000 H         1 <1>         0.186000 
      4 C          23.357000   20.439000   17.854000 C.ar      1 <1>        -0.236800 
      5 H          23.892000   19.749000   18.507000 H         1 <1>         0.194700 
      6 C          24.047000   21.408000   17.099000 C.ar      1 <1>         0.377300 
      7 C          23.308000   22.275000   16.282000 C.ar      1 <1>        -0.351500 
      8 H          23.766000   23.082000   15.722000 H         1 <1>         0.189000 
      9 C          21.914000   22.158000   16.198000 C.ar      1 <1>         0.119100 
     10 H          21.357000   22.842000   15.560000 H         1 <1>         0.174300 
     11 N          25.472000   21.495000   17.219000 N.pl3     1 <1>        -0.054100 
     12 C          26.418000   22.141000   16.423000 C.ar      1 <1>         0.271100 
     13 C          26.214000   22.731000   15.101000 C.ar      1 <1>        -0.306400 
     14 C          26.467000   24.090000   14.871000 C.ar      1 <1>         0.613500 
     15 C          26.292000   24.653000   13.610000 C.ar      1 <1>        -0.397400 
     16 H          26.488000   25.711000   13.459000 H         1 <1>         0.230700 
     17 C          25.867000   23.855000   12.550000 C.ar      1 <1>        -0.006200 
     18 H          25.728000   24.289000   11.561000 H         1 <1>         0.160300 
     19 C          25.624000   22.496000   12.756000 C.ar      1 <1>        -0.250800 
     20 H          25.298000   21.870000   11.926000 H         1 <1>         0.180400 
     21 C          25.802000   21.934000   14.024000 C.ar      1 <1>        -0.022600 
     22 H          25.615000   20.870000   14.160000 H         1 <1>         0.161700 
     23 F          26.872000   24.881000   15.877000 F         1 <1>        -0.366700 
     24 C          27.617000   22.044000   17.106000 C.ar      1 <1>        -0.423300 
     25 H          28.572000   22.448000   16.792000 H         1 <1>         0.282200 
     26 C          27.365000   21.257000   18.248000 C.ar      1 <1>        -0.152700 
     27 N          26.074000   20.878000   18.286000 N.ar      1 <1>        -0.285100 
     28 C          28.370000   20.838000   19.287000 C.3       1 <1>         1.506300 
     29 F          27.943000   21.086000   20.561000 F         1 <1>        -0.452900 
     30 F          29.568000   21.482000   19.157000 F         1 <1>        -0.456900 
     31 F          28.650000   19.501000   19.230000 F         1 <1>        -0.451200 
     32 S          19.488000   21.035000   16.809000 S.o2      1 <1>         2.419900 
     33 O          18.929000   22.296000   16.355000 O.2       1 <1>        -0.986900 
     34 O          18.975000   20.389000   18.004000 O.2       1 <1>        -0.981200 
     35 N          19.324000   19.948000   15.545000 N.pl3     1 <1>        -1.303900 
     36 H          18.836000   20.375000   14.753000 H         1 <1>         0.485000 
     37 H          18.858000   19.091000   15.853000 H         1 <1>         0.488400 
@<TRIPOS>BOND
     1    1    2 ar   
     2    2    3 1    
     3    2    4 ar   
     4    4    5 1    
     5    4    6 ar   
     6    6    7 ar   
     7    7    8 1    
     8    7    9 ar   
     9    9   10 1    
    10    9    1 ar   
    11    6   11 1    
    12   11   12 ar   
    13   12   13 1    
    14   13   14 ar   
    15   14   15 ar   
    16   15   16 1    
    17   15   17 ar   
    18   17   18 1    
    19   17   19 ar   
    20   19   20 1    
    21   19   21 ar   
    22   21   22 1    
    23   21   13 ar   
    24   14   23 1    
    25   12   24 ar   
    26   24   25 1    
    27   24   26 ar   
    28   26   27 ar   
    29   27   11 ar   
    30   26   28 1    
    31   28   29 1    
    32   28   30 1    
    33   28   31 1    
    34    1   32 1    
    35   32   33 2    
    36   32   34 2    
    37   32   35 1    
    38   35   36 1    
    39   35   37 1    
@<TRIPOS>SUBSTRUCTURE
     1 ****        1 TEMP              0 ****  ****    0 ROOT 
@<TRIPOS>SET
UNITY_3DHIT     STATIC     ATOMS    <user>   **** Atoms matching 3D or FLEX Search
0
