#	Name:			8-1c
#	Creating user name:	jeff
#	Creation time:		Fri Dec 13 09:52:38 2002

#	Modifying user name:	jeff
#	Modification time:	Fri Dec 13 09:52:40 2002

@<TRIPOS>MOLECULE
8-1c
   37    39     1     0     1
SMALL
USER_CHARGES
****
From 3DB ct
@<TRIPOS>ATOM
      1 C          21.248000   21.186000   16.948000 C.ar      1 <1>        -0.624300 
      2 C          21.965000   20.321000   17.774000 C.ar      1 <1>         0.074600 
      3 H          21.458000   19.558000   18.361000 H         1 <1>         0.185800 
      4 C          23.357000   20.436000   17.855000 C.ar      1 <1>        -0.227500 
      5 H          23.892000   19.746000   18.507000 H         1 <1>         0.192100 
      6 C          24.047000   21.403000   17.097000 C.ar      1 <1>         0.341300 
      7 C          23.309000   22.273000   16.283000 C.ar      1 <1>        -0.324400 
      8 H          23.771000   23.079000   15.723000 H         1 <1>         0.177700 
      9 C          21.915000   22.159000   16.201000 C.ar      1 <1>         0.110400 
     10 H          21.358000   22.845000   15.565000 H         1 <1>         0.177200 
     11 N          25.472000   21.489000   17.215000 N.pl3     1 <1>        -0.014700 
     12 C          26.415000   22.148000   16.423000 C.ar      1 <1>         0.155900 
     13 C          26.212000   22.734000   15.099000 C.ar      1 <1>         0.069000 
     14 C          26.470000   24.093000   14.884000 C.ar      1 <1>        -0.362900 
     15 H          26.800000   24.738000   15.694000 H         1 <1>         0.232900 
     16 C          26.296000   24.637000   13.615000 C.ar      1 <1>         0.563100 
     17 C          25.878000   23.851000   12.547000 C.ar      1 <1>        -0.344700 
     18 H          25.748000   24.296000   11.565000 H         1 <1>         0.225800 
     19 C          25.635000   22.494000   12.749000 C.ar      1 <1>        -0.073000 
     20 H          25.314000   21.868000   11.918000 H         1 <1>         0.170900 
     21 C          25.807000   21.936000   14.018000 C.ar      1 <1>        -0.212300 
     22 H          25.622000   20.871000   14.155000 H         1 <1>         0.176700 
     23 F          26.534000   25.941000   13.419000 F         1 <1>        -0.364800 
     24 C          27.610000   22.064000   17.114000 C.ar      1 <1>        -0.406200 
     25 H          28.561000   22.481000   16.807000 H         1 <1>         0.272700 
     26 C          27.363000   21.264000   18.248000 C.ar      1 <1>        -0.156800 
     27 N          26.077000   20.866000   18.276000 N.ar      1 <1>        -0.283400 
     28 C          28.369000   20.848000   19.288000 C.3       1 <1>         1.500900 
     29 F          29.551000   21.526000   19.182000 F         1 <1>        -0.456900 
     30 F          28.682000   19.521000   19.206000 F         1 <1>        -0.447300 
     31 F          27.925000   21.059000   20.563000 F         1 <1>        -0.451700 
     32 S          19.488000   21.040000   16.812000 S.o2      1 <1>         2.419200 
     33 O          18.932000   22.297000   16.344000 O.2       1 <1>        -0.985700 
     34 O          18.974000   20.408000   18.015000 O.2       1 <1>        -0.980700 
     35 N          19.320000   19.941000   15.559000 N.pl3     1 <1>        -1.303100 
     36 H          18.835000   20.362000   14.763000 H         1 <1>         0.485500 
     37 H          18.849000   19.089000   15.875000 H         1 <1>         0.488800 
@<TRIPOS>BOND
     1    1    2 ar   
     2    2    3 1    
     3    2    4 ar   
     4    4    5 1    
     5    4    6 ar   
     6    6    7 ar   
     7    7    8 1    
     8    7    9 ar   
     9    9   10 1    
    10    9    1 ar   
    11    6   11 1    
    12   11   12 ar   
    13   12   13 1    
    14   13   14 ar   
    15   14   15 1    
    16   14   16 ar   
    17   16   17 ar   
    18   17   18 1    
    19   17   19 ar   
    20   19   20 1    
    21   19   21 ar   
    22   21   22 1    
    23   21   13 ar   
    24   16   23 1    
    25   12   24 ar   
    26   24   25 1    
    27   24   26 ar   
    28   26   27 ar   
    29   27   11 ar   
    30   26   28 1    
    31   28   29 1    
    32   28   30 1    
    33   28   31 1    
    34    1   32 1    
    35   32   33 2    
    36   32   34 2    
    37   32   35 1    
    38   35   36 1    
    39   35   37 1    
@<TRIPOS>SUBSTRUCTURE
     1 ****        1 TEMP              0 ****  ****    0 ROOT 
@<TRIPOS>SET
UNITY_3DHIT     STATIC     ATOMS    <user>   **** Atoms matching 3D or FLEX Search
0
