#	Name:			8-1d
#	Creating user name:	jeff
#	Creation time:		Fri Dec 13 09:52:40 2002

#	Modifying user name:	jeff
#	Modification time:	Fri Dec 13 09:52:42 2002

@<TRIPOS>MOLECULE
8-1d
   37    39     1     0     1
SMALL
USER_CHARGES
****
From 3DB ct
@<TRIPOS>ATOM
      1 C          21.249000   21.185000   16.947000 C.ar      1 <1>        -0.627400 
      2 C          21.965000   20.320000   17.774000 C.ar      1 <1>         0.075600 
      3 H          21.457000   19.558000   18.360000 H         1 <1>         0.185700 
      4 C          23.357000   20.436000   17.855000 C.ar      1 <1>        -0.224000 
      5 H          23.891000   19.746000   18.508000 H         1 <1>         0.190500 
      6 C          24.047000   21.403000   17.099000 C.ar      1 <1>         0.332100 
      7 C          23.310000   22.273000   16.284000 C.ar      1 <1>        -0.311500 
      8 H          23.772000   23.081000   15.726000 H         1 <1>         0.169900 
      9 C          21.916000   22.159000   16.200000 C.ar      1 <1>         0.107300 
     10 H          21.359000   22.844000   15.563000 H         1 <1>         0.179100 
     11 N          25.472000   21.490000   17.217000 N.pl3     1 <1>        -0.014600 
     12 C          26.415000   22.145000   16.422000 C.ar      1 <1>         0.159600 
     13 C          26.211000   22.729000   15.098000 C.ar      1 <1>        -0.114100 
     14 C          26.470000   24.091000   14.882000 C.ar      1 <1>         0.003400 
     15 H          26.801000   24.729000   15.701000 H         1 <1>         0.162300 
     16 C          26.296000   24.649000   13.614000 C.ar      1 <1>        -0.426000 
     17 H          26.489000   25.705000   13.445000 H         1 <1>         0.237100 
     18 C          25.876000   23.844000   12.562000 C.ar      1 <1>         0.638600 
     19 C          25.630000   22.489000   12.752000 C.ar      1 <1>        -0.434000 
     20 H          25.309000   21.873000   11.917000 H         1 <1>         0.240900 
     21 C          25.803000   21.929000   14.020000 C.ar      1 <1>        -0.029600 
     22 H          25.619000   20.865000   14.157000 H         1 <1>         0.170200 
     23 F          25.710000   24.380000   11.346000 F         1 <1>        -0.368500 
     24 C          27.611000   22.063000   17.113000 C.ar      1 <1>        -0.394000 
     25 H          28.562000   22.478000   16.803000 H         1 <1>         0.265600 
     26 C          27.364000   21.265000   18.249000 C.ar      1 <1>        -0.166000 
     27 N          26.078000   20.869000   18.279000 N.ar      1 <1>        -0.278900 
     28 C          28.372000   20.851000   19.287000 C.3       1 <1>         1.500500 
     29 F          27.930000   21.065000   20.562000 F         1 <1>        -0.451900 
     30 F          29.554000   21.527000   19.178000 F         1 <1>        -0.456800 
     31 F          28.684000   19.523000   19.207000 F         1 <1>        -0.446600 
     32 S          19.488000   21.040000   16.810000 S.o2      1 <1>         2.422600 
     33 O          18.933000   22.298000   16.343000 O.2       1 <1>        -0.987000 
     34 O          18.974000   20.407000   18.012000 O.2       1 <1>        -0.981500 
     35 N          19.322000   19.942000   15.556000 N.pl3     1 <1>        -1.302800 
     36 H          18.838000   20.363000   14.759000 H         1 <1>         0.485700 
     37 H          18.849000   19.091000   15.872000 H         1 <1>         0.488600 
@<TRIPOS>BOND
     1    1    2 ar   
     2    2    3 1    
     3    2    4 ar   
     4    4    5 1    
     5    4    6 ar   
     6    6    7 ar   
     7    7    8 1    
     8    7    9 ar   
     9    9   10 1    
    10    9    1 ar   
    11    6   11 1    
    12   11   12 ar   
    13   12   13 1    
    14   13   14 ar   
    15   14   15 1    
    16   14   16 ar   
    17   16   17 1    
    18   16   18 ar   
    19   18   19 ar   
    20   19   20 1    
    21   19   21 ar   
    22   21   22 1    
    23   21   13 ar   
    24   18   23 1    
    25   12   24 ar   
    26   24   25 1    
    27   24   26 ar   
    28   26   27 ar   
    29   27   11 ar   
    30   26   28 1    
    31   28   29 1    
    32   28   30 1    
    33   28   31 1    
    34    1   32 1    
    35   32   33 2    
    36   32   34 2    
    37   32   35 1    
    38   35   36 1    
    39   35   37 1    
@<TRIPOS>SUBSTRUCTURE
     1 ****        1 TEMP              0 ****  ****    0 ROOT 
@<TRIPOS>SET
UNITY_3DHIT     STATIC     ATOMS    <user>   **** Atoms matching 3D or FLEX Search
0
