#	Name:			8-1g
#	Creating user name:	jeff
#	Creation time:		Fri Dec 13 09:52:46 2002

#	Modifying user name:	jeff
#	Modification time:	Fri Dec 13 09:52:49 2002

@<TRIPOS>MOLECULE
8-1g
   40    42     1     0     1
SMALL
USER_CHARGES
****
From 3DB ct
@<TRIPOS>ATOM
      1 C          21.241000   21.181000   16.945000 C.ar      1 <1>        -0.616800 
      2 C          21.963000   20.322000   17.772000 C.ar      1 <1>         0.056300 
      3 H          21.460000   19.555000   18.358000 H         1 <1>         0.189600 
      4 C          23.354000   20.448000   17.853000 C.ar      1 <1>        -0.230600 
      5 H          23.889000   19.760000   18.508000 H         1 <1>         0.191700 
      6 C          24.042000   21.422000   17.101000 C.ar      1 <1>         0.414300 
      7 C          23.297000   22.279000   16.281000 C.ar      1 <1>        -0.351300 
      8 H          23.748000   23.082000   15.709000 H         1 <1>         0.198200 
      9 C          21.904000   22.155000   16.197000 C.ar      1 <1>         0.094700 
     10 H          21.346000   22.833000   15.553000 H         1 <1>         0.179200 
     11 N          25.470000   21.509000   17.224000 N.pl3     1 <1>        -0.124900 
     12 C          26.425000   22.139000   16.422000 C.ar      1 <1>         0.346900 
     13 C          26.222000   22.757000   15.111000 C.ar      1 <1>        -0.212100 
     14 C          26.471000   24.127000   14.887000 C.ar      1 <1>         0.226800 
     15 C          26.287000   24.651000   13.597000 C.ar      1 <1>        -0.240500 
     16 H          26.473000   25.707000   13.400000 H         1 <1>         0.177800 
     17 C          25.863000   23.836000   12.547000 C.ar      1 <1>        -0.107500 
     18 H          25.724000   24.258000   11.554000 H         1 <1>         0.159600 
     19 C          25.625000   22.483000   12.769000 C.ar      1 <1>        -0.166900 
     20 H          25.300000   21.845000   11.950000 H         1 <1>         0.161800 
     21 C          25.808000   21.945000   14.043000 C.ar      1 <1>        -0.111400 
     22 H          25.626000   20.882000   14.196000 H         1 <1>         0.155800 
     23 C          26.932000   25.043000   15.990000 C.3       1 <1>        -0.349200 
     24 H          27.954000   24.791000   16.291000 H         1 <1>         0.111800 
     25 H          26.266000   24.971000   16.855000 H         1 <1>         0.092800 
     26 H          26.929000   26.090000   15.668000 H         1 <1>         0.108000 
     27 C          27.634000   21.984000   17.076000 C.ar      1 <1>        -0.469800 
     28 H          28.597000   22.348000   16.740000 H         1 <1>         0.277800 
     29 C          27.371000   21.220000   18.230000 C.ar      1 <1>        -0.142700 
     30 N          26.067000   20.900000   18.299000 N.ar      1 <1>        -0.284100 
     31 C          28.386000   20.768000   19.246000 C.3       1 <1>         1.503600 
     32 F          27.850000   20.576000   20.488000 F         1 <1>        -0.453500 
     33 F          29.401000   21.668000   19.409000 F         1 <1>        -0.457100 
     34 F          28.975000   19.587000   18.897000 F         1 <1>        -0.450600 
     35 S          19.483000   21.014000   16.805000 S.o2      1 <1>         2.436600 
     36 O          18.907000   22.289000   16.414000 O.2       1 <1>        -0.993900 
     37 O          18.979000   20.304000   17.967000 O.2       1 <1>        -0.987100 
     38 N          19.331000   19.986000   15.491000 N.pl3     1 <1>        -1.306500 
     39 H          18.833000   20.443000   14.721000 H         1 <1>         0.485000 
     40 H          18.877000   19.109000   15.758000 H         1 <1>         0.488300 
@<TRIPOS>BOND
     1    1    2 ar   
     2    2    3 1    
     3    2    4 ar   
     4    4    5 1    
     5    4    6 ar   
     6    6    7 ar   
     7    7    8 1    
     8    7    9 ar   
     9    9   10 1    
    10    9    1 ar   
    11    6   11 1    
    12   11   12 ar   
    13   12   13 1    
    14   13   14 ar   
    15   14   15 ar   
    16   15   16 1    
    17   15   17 ar   
    18   17   18 1    
    19   17   19 ar   
    20   19   20 1    
    21   19   21 ar   
    22   21   22 1    
    23   21   13 ar   
    24   14   23 1    
    25   23   24 1    
    26   23   25 1    
    27   23   26 1    
    28   12   27 ar   
    29   27   28 1    
    30   27   29 ar   
    31   29   30 ar   
    32   30   11 ar   
    33   29   31 1    
    34   31   32 1    
    35   31   33 1    
    36   31   34 1    
    37    1   35 1    
    38   35   36 2    
    39   35   37 2    
    40   35   38 1    
    41   38   39 1    
    42   38   40 1    
@<TRIPOS>SUBSTRUCTURE
     1 ****        1 TEMP              0 ****  ****    0 ROOT 
@<TRIPOS>SET
UNITY_3DHIT     STATIC     ATOMS    <user>   **** Atoms matching 3D or FLEX Search
0
