#	Name:			8-1i
#	Creating user name:	jeff
#	Creation time:		Fri Dec 13 09:52:51 2002

#	Modifying user name:	jeff
#	Modification time:	Fri Dec 13 09:52:53 2002

@<TRIPOS>MOLECULE
8-1i
   40    42     1     0     1
SMALL
USER_CHARGES
****
From 3DB ct
@<TRIPOS>ATOM
      1 C          21.248000   21.186000   16.948000 C.ar      1 <1>        -0.628900 
      2 C          21.964000   20.321000   17.775000 C.ar      1 <1>         0.065700 
      3 H          21.457000   19.559000   18.362000 H         1 <1>         0.186700 
      4 C          23.357000   20.437000   17.855000 C.ar      1 <1>        -0.215500 
      5 H          23.891000   19.747000   18.508000 H         1 <1>         0.187300 
      6 C          24.046000   21.404000   17.099000 C.ar      1 <1>         0.328100 
      7 C          23.308000   22.273000   16.284000 C.ar      1 <1>        -0.304200 
      8 H          23.770000   23.079000   15.723000 H         1 <1>         0.168600 
      9 C          21.915000   22.159000   16.201000 C.ar      1 <1>         0.108100 
     10 H          21.358000   22.845000   15.564000 H         1 <1>         0.176800 
     11 N          25.472000   21.491000   17.217000 N.pl3     1 <1>        -0.011100 
     12 C          26.416000   22.145000   16.422000 C.ar      1 <1>         0.162800 
     13 C          26.212000   22.730000   15.099000 C.ar      1 <1>        -0.044400 
     14 C          26.472000   24.088000   14.881000 C.ar      1 <1>        -0.081100 
     15 H          26.808000   24.725000   15.697000 H         1 <1>         0.155900 
     16 C          26.297000   24.648000   13.612000 C.ar      1 <1>        -0.289800 
     17 H          26.504000   25.707000   13.466000 H         1 <1>         0.193200 
     18 C          25.860000   23.858000   12.542000 C.ar      1 <1>         0.254900 
     19 C          25.631000   22.494000   12.753000 C.ar      1 <1>        -0.298600 
     20 H          25.316000   21.855000   11.929000 H         1 <1>         0.199000 
     21 C          25.806000   21.933000   14.021000 C.ar      1 <1>        -0.119400 
     22 H          25.625000   20.868000   14.156000 H         1 <1>         0.165500 
     23 C          25.704000   24.452000   11.172000 C.3       1 <1>        -0.330800 
     24 H          24.917000   23.937000   10.612000 H         1 <1>         0.094700 
     25 H          26.645000   24.369000   10.620000 H         1 <1>         0.105100 
     26 H          25.421000   25.508000   11.234000 H         1 <1>         0.096100 
     27 C          27.612000   22.058000   17.111000 C.ar      1 <1>        -0.404100 
     28 H          28.564000   22.471000   16.800000 H         1 <1>         0.265600 
     29 C          27.364000   21.262000   18.247000 C.ar      1 <1>        -0.161400 
     30 N          26.077000   20.870000   18.280000 N.ar      1 <1>        -0.286700 
     31 C          28.371000   20.843000   19.285000 C.3       1 <1>         1.496200 
     32 F          29.564000   21.498000   19.160000 F         1 <1>        -0.456300 
     33 F          28.660000   19.510000   19.220000 F         1 <1>        -0.446700 
     34 F          27.940000   21.081000   20.560000 F         1 <1>        -0.452200 
     35 S          19.488000   21.037000   16.810000 S.o2      1 <1>         2.425500 
     36 O          18.943000   22.252000   16.230000 O.2       1 <1>        -0.989900 
     37 O          18.959000   20.514000   18.058000 O.2       1 <1>        -0.984100 
     38 N          19.326000   19.833000   15.656000 N.pl3     1 <1>        -1.302800 
     39 H          18.848000   20.184000   14.822000 H         1 <1>         0.484500 
     40 H          18.850000   19.014000   16.042000 H         1 <1>         0.487900 
@<TRIPOS>BOND
     1    1    2 ar   
     2    2    3 1    
     3    2    4 ar   
     4    4    5 1    
     5    4    6 ar   
     6    6    7 ar   
     7    7    8 1    
     8    7    9 ar   
     9    9   10 1    
    10    9    1 ar   
    11    6   11 1    
    12   11   12 ar   
    13   12   13 1    
    14   13   14 ar   
    15   14   15 1    
    16   14   16 ar   
    17   16   17 1    
    18   16   18 ar   
    19   18   19 ar   
    20   19   20 1    
    21   19   21 ar   
    22   21   22 1    
    23   21   13 ar   
    24   18   23 1    
    25   23   24 1    
    26   23   25 1    
    27   23   26 1    
    28   12   27 ar   
    29   27   28 1    
    30   27   29 ar   
    31   29   30 ar   
    32   30   11 ar   
    33   29   31 1    
    34   31   32 1    
    35   31   33 1    
    36   31   34 1    
    37    1   35 1    
    38   35   36 2    
    39   35   37 2    
    40   35   38 1    
    41   38   39 1    
    42   38   40 1    
@<TRIPOS>SUBSTRUCTURE
     1 ****        1 TEMP              0 ****  ****    0 ROOT 
@<TRIPOS>SET
UNITY_3DHIT     STATIC     ATOMS    <user>   **** Atoms matching 3D or FLEX Search
0
