#	Name:			8-1j
#	Creating user name:	jeff
#	Creation time:		Fri Dec 13 09:52:53 2002

#	Modifying user name:	jeff
#	Modification time:	Fri Dec 13 09:52:55 2002

@<TRIPOS>MOLECULE
8-1j
   43    45     1     0     1
SMALL
USER_CHARGES
****
From 3DB ct
@<TRIPOS>ATOM
      1 C          21.246000   21.184000   16.951000 C.ar      1 <1>        -0.625900 
      2 C          21.964000   20.319000   17.776000 C.ar      1 <1>         0.052000 
      3 H          21.458000   19.556000   18.364000 H         1 <1>         0.189400 
      4 C          23.356000   20.435000   17.853000 C.ar      1 <1>        -0.202500 
      5 H          23.892000   19.745000   18.505000 H         1 <1>         0.186200 
      6 C          24.044000   21.403000   17.096000 C.ar      1 <1>         0.309200 
      7 C          23.305000   22.271000   16.282000 C.ar      1 <1>        -0.296500 
      8 H          23.766000   23.078000   15.720000 H         1 <1>         0.156800 
      9 C          21.911000   22.157000   16.202000 C.ar      1 <1>         0.116200 
     10 H          21.354000   22.841000   15.566000 H         1 <1>         0.173300 
     11 N          25.470000   21.491000   17.215000 N.pl3     1 <1>         0.016900 
     12 C          26.414000   22.145000   16.421000 C.ar      1 <1>         0.108700 
     13 C          26.214000   22.731000   15.098000 C.ar      1 <1>         0.084600 
     14 C          26.472000   24.090000   14.881000 C.ar      1 <1>        -0.147500 
     15 H          26.802000   24.727000   15.700000 H         1 <1>         0.159700 
     16 C          26.304000   24.649000   13.611000 C.ar      1 <1>        -0.181300 
     17 H          26.509000   25.710000   13.468000 H         1 <1>         0.179200 
     18 C          25.881000   23.858000   12.537000 C.ar      1 <1>        -0.019600 
     19 C          25.644000   22.494000   12.749000 C.ar      1 <1>        -0.172300 
     20 H          25.330000   21.855000   11.924000 H         1 <1>         0.181600 
     21 C          25.813000   21.934000   14.018000 C.ar      1 <1>        -0.206600 
     22 H          25.629000   20.869000   14.153000 H         1 <1>         0.173100 
     23 C          25.715000   24.458000   11.163000 C.3       1 <1>         0.084700 
     24 H          25.398000   25.504000   11.253000 H         1 <1>         0.007700 
     25 H          24.906000   23.942000   10.631000 H         1 <1>         0.004900 
     26 C          26.998000   24.377000   10.351000 C.3       1 <1>        -0.068800 
     27 H          26.847000   24.817000    9.360000 H         1 <1>         0.018900 
     28 H          27.318000   23.339000   10.215000 H         1 <1>         0.022200 
     29 H          27.813000   24.919000   10.842000 H         1 <1>         0.022400 
     30 C          27.610000   22.061000   17.113000 C.ar      1 <1>        -0.401200 
     31 H          28.562000   22.475000   16.803000 H         1 <1>         0.262800 
     32 C          27.361000   21.263000   18.248000 C.ar      1 <1>        -0.149100 
     33 N          26.074000   20.871000   18.279000 N.ar      1 <1>        -0.297500 
     34 C          28.366000   20.845000   19.287000 C.3       1 <1>         1.488300 
     35 F          29.579000   21.453000   19.127000 F         1 <1>        -0.454600 
     36 F          28.609000   19.501000   19.265000 F         1 <1>        -0.445300 
     37 F          27.960000   21.140000   20.558000 F         1 <1>        -0.450700 
     38 S          19.485000   21.037000   16.818000 S.o2      1 <1>         2.423700 
     39 O          18.941000   22.247000   16.227000 O.2       1 <1>        -0.989400 
     40 O          18.958000   20.527000   18.072000 O.2       1 <1>        -0.982900 
     41 N          19.318000   19.822000   15.677000 N.pl3     1 <1>        -1.305500 
     42 H          18.839000   20.166000   14.841000 H         1 <1>         0.485900 
     43 H          18.841000   19.008000   16.072000 H         1 <1>         0.488700 
@<TRIPOS>BOND
     1    1    2 ar   
     2    2    3 1    
     3    2    4 ar   
     4    4    5 1    
     5    4    6 ar   
     6    6    7 ar   
     7    7    8 1    
     8    7    9 ar   
     9    9   10 1    
    10    9    1 ar   
    11    6   11 1    
    12   11   12 ar   
    13   12   13 1    
    14   13   14 ar   
    15   14   15 1    
    16   14   16 ar   
    17   16   17 1    
    18   16   18 ar   
    19   18   19 ar   
    20   19   20 1    
    21   19   21 ar   
    22   21   22 1    
    23   21   13 ar   
    24   18   23 1    
    25   23   24 1    
    26   23   25 1    
    27   23   26 1    
    28   26   27 1    
    29   26   28 1    
    30   26   29 1    
    31   12   30 ar   
    32   30   31 1    
    33   30   32 ar   
    34   32   33 ar   
    35   33   11 ar   
    36   32   34 1    
    37   34   35 1    
    38   34   36 1    
    39   34   37 1    
    40    1   38 1    
    41   38   39 2    
    42   38   40 2    
    43   38   41 1    
    44   41   42 1    
    45   41   43 1    
@<TRIPOS>SUBSTRUCTURE
     1 ****        1 TEMP              0 ****  ****    0 ROOT 
@<TRIPOS>SET
UNITY_3DHIT     STATIC     ATOMS    <user>   **** Atoms matching 3D or FLEX Search
0
