#	Name:			8-1l
#	Creating user name:	jeff
#	Creation time:		Fri Dec 13 09:52:58 2002

#	Modifying user name:	jeff
#	Modification time:	Fri Dec 13 09:53:00 2002

@<TRIPOS>MOLECULE
8-1l
   39    41     1     0     1
SMALL
USER_CHARGES
****
From 3DB ct
@<TRIPOS>ATOM
      1 C          21.248000   21.186000   16.949000 C.ar      1 <1>        -0.623900 
      2 C          21.965000   20.321000   17.775000 C.ar      1 <1>         0.083000 
      3 H          21.457000   19.559000   18.362000 H         1 <1>         0.185800 
      4 C          23.357000   20.436000   17.856000 C.ar      1 <1>        -0.224900 
      5 H          23.891000   19.746000   18.508000 H         1 <1>         0.192700 
      6 C          24.047000   21.403000   17.099000 C.ar      1 <1>         0.318600 
      7 C          23.309000   22.273000   16.284000 C.ar      1 <1>        -0.324800 
      8 H          23.772000   23.080000   15.725000 H         1 <1>         0.170200 
      9 C          21.916000   22.160000   16.202000 C.ar      1 <1>         0.117000 
     10 H          21.359000   22.845000   15.565000 H         1 <1>         0.178800 
     11 N          25.472000   21.489000   17.216000 N.pl3     1 <1>         0.019300 
     12 C          26.414000   22.145000   16.422000 C.ar      1 <1>         0.069400 
     13 C          26.211000   22.729000   15.098000 C.ar      1 <1>         0.056300 
     14 C          26.469000   24.090000   14.881000 C.ar      1 <1>        -0.082700 
     15 H          26.798000   24.727000   15.701000 H         1 <1>         0.173500 
     16 C          26.299000   24.653000   13.612000 C.ar      1 <1>        -0.224900 
     17 H          26.500000   25.713000   13.475000 H         1 <1>         0.236400 
     18 C          25.880000   23.846000   12.547000 C.ar      1 <1>         0.134000 
     19 C          25.634000   22.481000   12.747000 C.ar      1 <1>        -0.224800 
     20 H          25.315000   21.837000   11.931000 H         1 <1>         0.237400 
     21 C          25.806000   21.927000   14.020000 C.ar      1 <1>        -0.118300 
     22 H          25.622000   20.863000   14.160000 H         1 <1>         0.180400 
     23 N          25.701000   24.432000   11.212000 N.2       1 <1>         0.746800 
     24 O          25.351000   23.684000   10.280000 O.2       1 <1>        -0.510800 
     25 O          25.908000   25.652000   11.070000 O.3       1 <1>        -0.509200 
     26 C          27.609000   22.064000   17.113000 C.ar      1 <1>        -0.362900 
     27 H          28.561000   22.481000   16.804000 H         1 <1>         0.263700 
     28 C          27.363000   21.265000   18.248000 C.ar      1 <1>        -0.160100 
     29 N          26.078000   20.868000   18.278000 N.ar      1 <1>        -0.275200 
     30 C          28.370000   20.851000   19.287000 C.3       1 <1>         1.492800 
     31 F          27.948000   21.114000   20.560000 F         1 <1>        -0.448100 
     32 F          29.571000   21.488000   19.147000 F         1 <1>        -0.454500 
     33 F          28.643000   19.513000   19.244000 F         1 <1>        -0.443000 
     34 S          19.488000   21.038000   16.811000 S.o2      1 <1>         2.414800 
     35 O          18.931000   22.295000   16.342000 O.2       1 <1>        -0.981700 
     36 O          18.973000   20.407000   18.013000 O.2       1 <1>        -0.977300 
     37 N          19.323000   19.938000   15.559000 N.pl3     1 <1>        -1.302500 
     38 H          18.838000   20.358000   14.762000 H         1 <1>         0.488300 
     39 H          18.853000   19.086000   15.876000 H         1 <1>         0.490300 
@<TRIPOS>BOND
     1    1    2 ar   
     2    2    3 1    
     3    2    4 ar   
     4    4    5 1    
     5    4    6 ar   
     6    6    7 ar   
     7    7    8 1    
     8    7    9 ar   
     9    9   10 1    
    10    9    1 ar   
    11    6   11 1    
    12   11   12 ar   
    13   12   13 1    
    14   13   14 ar   
    15   14   15 1    
    16   14   16 ar   
    17   16   17 1    
    18   16   18 ar   
    19   18   19 ar   
    20   19   20 1    
    21   19   21 ar   
    22   21   22 1    
    23   21   13 ar   
    24   18   23 1    
    25   23   24 2    
    26   23   25 1    
    27   12   26 ar   
    28   26   27 1    
    29   26   28 ar   
    30   28   29 ar   
    31   29   11 ar   
    32   28   30 1    
    33   30   31 1    
    34   30   32 1    
    35   30   33 1    
    36    1   34 1    
    37   34   35 2    
    38   34   36 2    
    39   34   37 1    
    40   37   38 1    
    41   37   39 1    
@<TRIPOS>SUBSTRUCTURE
     1 ****        1 TEMP              0 ****  ****    0 ROOT 
@<TRIPOS>SET
UNITY_3DHIT     STATIC     ATOMS    <user>   **** Atoms matching 3D or FLEX Search
0
@<TRIPOS>UNITY_ATOM_ATTR
23 1
AtomExpr +1
