#	Name:			8-1m
#	Creating user name:	jeff
#	Creation time:		Fri Dec 13 09:53:00 2002

#	Modifying user name:	jeff
#	Modification time:	Fri Dec 13 09:53:02 2002

@<TRIPOS>MOLECULE
8-1m
   38    40     1     0     1
SMALL
USER_CHARGES
****
From 3DB ct
@<TRIPOS>ATOM
      1 C          21.247000   21.185000   16.949000 C.ar      1 <1>        -0.633000 
      2 C          21.964000   20.320000   17.775000 C.ar      1 <1>         0.071300 
      3 H          21.457000   19.557000   18.362000 H         1 <1>         0.185500 
      4 C          23.357000   20.435000   17.854000 C.ar      1 <1>        -0.219700 
      5 H          23.891000   19.744000   18.506000 H         1 <1>         0.188200 
      6 C          24.046000   21.402000   17.097000 C.ar      1 <1>         0.334200 
      7 C          23.308000   22.271000   16.282000 C.ar      1 <1>        -0.315200 
      8 H          23.770000   23.078000   15.722000 H         1 <1>         0.171400 
      9 C          21.914000   22.158000   16.201000 C.ar      1 <1>         0.113800 
     10 H          21.357000   22.844000   15.565000 H         1 <1>         0.176100 
     11 N          25.471000   21.489000   17.215000 N.pl3     1 <1>        -0.010000 
     12 C          26.414000   22.146000   16.422000 C.ar      1 <1>         0.160200 
     13 C          26.212000   22.731000   15.098000 C.ar      1 <1>        -0.105700 
     14 C          26.470000   24.091000   14.882000 C.ar      1 <1>         0.013600 
     15 H          26.798000   24.730000   15.701000 H         1 <1>         0.153700 
     16 C          26.301000   24.649000   13.612000 C.ar      1 <1>        -0.488800 
     17 H          26.496000   25.707000   13.455000 H         1 <1>         0.215900 
     18 C          25.885000   23.845000   12.557000 C.ar      1 <1>         0.524400 
     19 C          25.639000   22.490000   12.748000 C.ar      1 <1>        -0.374800 
     20 H          25.321000   21.853000   11.926000 H         1 <1>         0.230600 
     21 C          25.809000   21.932000   14.018000 C.ar      1 <1>        -0.061700 
     22 H          25.624000   20.867000   14.155000 H         1 <1>         0.169900 
     23 O          25.731000   24.425000   11.332000 O.3       1 <1>        -0.617000 
     24 H          25.952000   25.378000   11.411000 H         1 <1>         0.445000 
     25 C          27.610000   22.064000   17.113000 C.ar      1 <1>        -0.405900 
     26 H          28.561000   22.480000   16.805000 H         1 <1>         0.263200 
     27 C          27.362000   21.266000   18.249000 C.ar      1 <1>        -0.156800 
     28 N          26.076000   20.869000   18.279000 N.ar      1 <1>        -0.289800 
     29 C          28.368000   20.852000   19.289000 C.3       1 <1>         1.493500 
     30 F          29.573000   21.481000   19.143000 F         1 <1>        -0.455900 
     31 F          28.632000   19.512000   19.254000 F         1 <1>        -0.446000 
     32 F          27.951000   21.127000   20.561000 F         1 <1>        -0.452100 
     33 S          19.487000   21.039000   16.815000 S.o2      1 <1>         2.425900 
     34 O          18.942000   22.257000   16.241000 O.2       1 <1>        -0.989900 
     35 O          18.961000   20.512000   18.061000 O.2       1 <1>        -0.983800 
     36 N          19.320000   19.841000   15.656000 N.pl3     1 <1>        -1.303300 
     37 H          18.842000   20.197000   14.825000 H         1 <1>         0.485000 
     38 H          18.843000   19.021000   16.039000 H         1 <1>         0.488400 
@<TRIPOS>BOND
     1    1    2 ar   
     2    2    3 1    
     3    2    4 ar   
     4    4    5 1    
     5    4    6 ar   
     6    6    7 ar   
     7    7    8 1    
     8    7    9 ar   
     9    9   10 1    
    10    9    1 ar   
    11    6   11 1    
    12   11   12 ar   
    13   12   13 1    
    14   13   14 ar   
    15   14   15 1    
    16   14   16 ar   
    17   16   17 1    
    18   16   18 ar   
    19   18   19 ar   
    20   19   20 1    
    21   19   21 ar   
    22   21   22 1    
    23   21   13 ar   
    24   18   23 1    
    25   23   24 1    
    26   12   25 ar   
    27   25   26 1    
    28   25   27 ar   
    29   27   28 ar   
    30   28   11 ar   
    31   27   29 1    
    32   29   30 1    
    33   29   31 1    
    34   29   32 1    
    35    1   33 1    
    36   33   34 2    
    37   33   35 2    
    38   33   36 1    
    39   36   37 1    
    40   36   38 1    
@<TRIPOS>SUBSTRUCTURE
     1 ****        1 TEMP              0 ****  ****    0 ROOT 
@<TRIPOS>SET
UNITY_3DHIT     STATIC     ATOMS    <user>   **** Atoms matching 3D or FLEX Search
0
