#	Name:			8-1n
#	Creating user name:	jeff
#	Creation time:		Fri Dec 13 09:53:02 2002

#	Modifying user name:	jeff
#	Modification time:	Fri Dec 13 09:53:04 2002

@<TRIPOS>MOLECULE
8-1n
   41    43     1     0     1
SMALL
USER_CHARGES
****
From 3DB ct
@<TRIPOS>ATOM
      1 C          21.246000   21.182000   16.942000 C.ar      1 <1>        -0.638300 
      2 C          21.965000   20.323000   17.771000 C.ar      1 <1>         0.059900 
      3 H          21.461000   19.557000   18.356000 H         1 <1>         0.188200 
      4 C          23.357000   20.447000   17.855000 C.ar      1 <1>        -0.223300 
      5 H          23.891000   19.759000   18.510000 H         1 <1>         0.188000 
      6 C          24.046000   21.419000   17.102000 C.ar      1 <1>         0.403200 
      7 C          23.304000   22.279000   16.282000 C.ar      1 <1>        -0.363100 
      8 H          23.758000   23.084000   15.715000 H         1 <1>         0.192600 
      9 C          21.911000   22.157000   16.196000 C.ar      1 <1>         0.128500 
     10 H          21.353000   22.837000   15.554000 H         1 <1>         0.170300 
     11 N          25.472000   21.506000   17.224000 N.pl3     1 <1>        -0.095800 
     12 C          26.424000   22.138000   16.423000 C.ar      1 <1>         0.293700 
     13 C          26.218000   22.751000   15.108000 C.ar      1 <1>        -0.294000 
     14 C          26.470000   24.122000   14.883000 C.ar      1 <1>         0.521500 
     15 C          26.279000   24.650000   13.602000 C.ar      1 <1>        -0.368300 
     16 H          26.453000   25.700000   13.379000 H         1 <1>         0.180900 
     17 C          25.850000   23.831000   12.553000 C.ar      1 <1>        -0.033000 
     18 H          25.704000   24.254000   11.560000 H         1 <1>         0.160100 
     19 C          25.611000   22.478000   12.772000 C.ar      1 <1>        -0.273600 
     20 H          25.281000   21.842000   11.952000 H         1 <1>         0.176600 
     21 C          25.799000   21.937000   14.043000 C.ar      1 <1>        -0.019700 
     22 H          25.615000   20.875000   14.197000 H         1 <1>         0.162800 
     23 O          26.877000   24.854000   15.972000 O.3       1 <1>        -0.442900 
     24 C          27.132000   26.241000   15.768000 C.3       1 <1>         0.069700 
     25 H          27.447000   26.665000   16.727000 H         1 <1>         0.100000 
     26 H          26.224000   26.767000   15.454000 H         1 <1>         0.048000 
     27 H          27.948000   26.390000   15.054000 H         1 <1>         0.047900 
     28 C          27.631000   22.003000   17.086000 C.ar      1 <1>        -0.441200 
     29 H          28.590000   22.383000   16.757000 H         1 <1>         0.275700 
     30 C          27.372000   21.230000   18.235000 C.ar      1 <1>        -0.141700 
     31 N          26.071000   20.890000   18.294000 N.ar      1 <1>        -0.286700 
     32 C          28.381000   20.787000   19.260000 C.3       1 <1>         1.494200 
     33 F          27.932000   20.939000   20.542000 F         1 <1>        -0.454300 
     34 F          29.553000   21.485000   19.186000 F         1 <1>        -0.455900 
     35 F          28.713000   19.469000   19.124000 F         1 <1>        -0.449300 
     36 S          19.488000   21.024000   16.799000 S.o2      1 <1>         2.432200 
     37 O          18.926000   22.276000   16.325000 O.2       1 <1>        -0.993000 
     38 O          18.971000   20.392000   18.000000 O.2       1 <1>        -0.986600 
     39 N          19.335000   19.920000   15.548000 N.pl3     1 <1>        -1.305500 
     40 H          18.849000   20.335000   14.748000 H         1 <1>         0.483800 
     41 H          18.869000   19.065000   15.864000 H         1 <1>         0.488300 
@<TRIPOS>BOND
     1    1    2 ar   
     2    2    3 1    
     3    2    4 ar   
     4    4    5 1    
     5    4    6 ar   
     6    6    7 ar   
     7    7    8 1    
     8    7    9 ar   
     9    9   10 1    
    10    9    1 ar   
    11    6   11 1    
    12   11   12 ar   
    13   12   13 1    
    14   13   14 ar   
    15   14   15 ar   
    16   15   16 1    
    17   15   17 ar   
    18   17   18 1    
    19   17   19 ar   
    20   19   20 1    
    21   19   21 ar   
    22   21   22 1    
    23   21   13 ar   
    24   14   23 1    
    25   23   24 1    
    26   24   25 1    
    27   24   26 1    
    28   24   27 1    
    29   12   28 ar   
    30   28   29 1    
    31   28   30 ar   
    32   30   31 ar   
    33   31   11 ar   
    34   30   32 1    
    35   32   33 1    
    36   32   34 1    
    37   32   35 1    
    38    1   36 1    
    39   36   37 2    
    40   36   38 2    
    41   36   39 1    
    42   39   40 1    
    43   39   41 1    
@<TRIPOS>SUBSTRUCTURE
     1 ****        1 TEMP              0 ****  ****    0 ROOT 
@<TRIPOS>SET
UNITY_3DHIT     STATIC     ATOMS    <user>   **** Atoms matching 3D or FLEX Search
0
