#	Name:			8-1o
#	Creating user name:	jeff
#	Creation time:		Fri Dec 13 09:53:04 2002

#	Modifying user name:	jeff
#	Modification time:	Fri Dec 13 09:53:06 2002

@<TRIPOS>MOLECULE
8-1o
   41    43     1     0     1
SMALL
USER_CHARGES
****
From 3DB ct
@<TRIPOS>ATOM
      1 C          21.250000   21.187000   16.947000 C.ar      1 <1>        -0.624200 
      2 C          21.965000   20.321000   17.774000 C.ar      1 <1>         0.070900 
      3 H          21.456000   19.558000   18.360000 H         1 <1>         0.185100 
      4 C          23.357000   20.436000   17.856000 C.ar      1 <1>        -0.222300 
      5 H          23.891000   19.745000   18.508000 H         1 <1>         0.189300 
      6 C          24.048000   21.402000   17.099000 C.ar      1 <1>         0.329700 
      7 C          23.311000   22.273000   16.284000 C.ar      1 <1>        -0.295700 
      8 H          23.775000   23.079000   15.725000 H         1 <1>         0.169500 
      9 C          21.918000   22.160000   16.200000 C.ar      1 <1>         0.092200 
     10 H          21.363000   22.846000   15.563000 H         1 <1>         0.181200 
     11 N          25.473000   21.488000   17.218000 N.pl3     1 <1>        -0.017000 
     12 C          26.415000   22.145000   16.424000 C.ar      1 <1>         0.200300 
     13 C          26.211000   22.728000   15.099000 C.ar      1 <1>        -0.204100 
     14 C          26.468000   24.086000   14.878000 C.ar      1 <1>        -0.008500 
     15 H          26.800000   24.725000   15.695000 H         1 <1>         0.161400 
     16 C          26.293000   24.649000   13.607000 C.ar      1 <1>        -0.404100 
     17 H          26.498000   25.710000   13.491000 H         1 <1>         0.185600 
     18 C          25.869000   23.857000   12.541000 C.ar      1 <1>         0.591200 
     19 C          25.628000   22.498000   12.756000 C.ar      1 <1>        -0.493700 
     20 H          25.303000   21.865000   11.932000 H         1 <1>         0.231800 
     21 C          25.803000   21.933000   14.023000 C.ar      1 <1>         0.058900 
     22 H          25.617000   20.869000   14.156000 H         1 <1>         0.147600 
     23 O          25.659000   24.281000   11.258000 O.3       1 <1>        -0.458800 
     24 C          25.884000   25.665000   10.995000 C.3       1 <1>         0.096500 
     25 H          25.666000   25.842000    9.937000 H         1 <1>         0.091000 
     26 H          26.931000   25.933000   11.170000 H         1 <1>         0.038500 
     27 H          25.209000   26.294000   11.585000 H         1 <1>         0.040800 
     28 C          27.611000   22.063000   17.115000 C.ar      1 <1>        -0.411600 
     29 H          28.562000   22.479000   16.806000 H         1 <1>         0.269000 
     30 C          27.364000   21.264000   18.250000 C.ar      1 <1>        -0.168600 
     31 N          26.078000   20.866000   18.279000 N.ar      1 <1>        -0.286100 
     32 C          28.371000   20.850000   19.289000 C.3       1 <1>         1.501800 
     33 F          27.935000   21.081000   20.563000 F         1 <1>        -0.452600 
     34 F          29.559000   21.513000   19.170000 F         1 <1>        -0.458200 
     35 F          28.670000   19.518000   19.221000 F         1 <1>        -0.447900 
     36 S          19.490000   21.041000   16.809000 S.o2      1 <1>         2.427700 
     37 O          18.935000   22.299000   16.340000 O.2       1 <1>        -0.991100 
     38 O          18.973000   20.409000   18.009000 O.2       1 <1>        -0.984700 
     39 N          19.325000   19.941000   15.556000 N.pl3     1 <1>        -1.304400 
     40 H          18.839000   20.361000   14.759000 H         1 <1>         0.485200 
     41 H          18.857000   19.089000   15.872000 H         1 <1>         0.488300 
@<TRIPOS>BOND
     1    1    2 ar   
     2    2    3 1    
     3    2    4 ar   
     4    4    5 1    
     5    4    6 ar   
     6    6    7 ar   
     7    7    8 1    
     8    7    9 ar   
     9    9   10 1    
    10    9    1 ar   
    11    6   11 1    
    12   11   12 ar   
    13   12   13 1    
    14   13   14 ar   
    15   14   15 1    
    16   14   16 ar   
    17   16   17 1    
    18   16   18 ar   
    19   18   19 ar   
    20   19   20 1    
    21   19   21 ar   
    22   21   22 1    
    23   21   13 ar   
    24   18   23 1    
    25   23   24 1    
    26   24   25 1    
    27   24   26 1    
    28   24   27 1    
    29   12   28 ar   
    30   28   29 1    
    31   28   30 ar   
    32   30   31 ar   
    33   31   11 ar   
    34   30   32 1    
    35   32   33 1    
    36   32   34 1    
    37   32   35 1    
    38    1   36 1    
    39   36   37 2    
    40   36   38 2    
    41   36   39 1    
    42   39   40 1    
    43   39   41 1    
@<TRIPOS>SUBSTRUCTURE
     1 ****        1 TEMP              0 ****  ****    0 ROOT 
@<TRIPOS>SET
UNITY_3DHIT     STATIC     ATOMS    <user>   **** Atoms matching 3D or FLEX Search
0
