#	Name:			8-1p
#	Creating user name:	jeff
#	Creation time:		Fri Dec 13 09:53:06 2002

#	Modifying user name:	jeff
#	Modification time:	Fri Dec 13 09:53:09 2002

@<TRIPOS>MOLECULE
8-1p
   44    46     1     0     1
SMALL
USER_CHARGES
****
From 3DB ct
@<TRIPOS>ATOM
      1 C          21.247000   21.193000   16.944000 C.ar      1 <1>        -0.629200 
      2 C          21.962000   20.325000   17.771000 C.ar      1 <1>         0.072600 
      3 H          21.448000   19.566000   18.357000 H         1 <1>         0.184800 
      4 C          23.354000   20.437000   17.853000 C.ar      1 <1>        -0.224500 
      5 H          23.887000   19.746000   18.506000 H         1 <1>         0.189700 
      6 C          24.045000   21.402000   17.096000 C.ar      1 <1>         0.336300 
      7 C          23.310000   22.273000   16.280000 C.ar      1 <1>        -0.306500 
      8 H          23.775000   23.078000   15.721000 H         1 <1>         0.170800 
      9 C          21.915000   22.164000   16.198000 C.ar      1 <1>         0.102200 
     10 H          21.365000   22.853000   15.559000 H         1 <1>         0.179600 
     11 N          25.470000   21.488000   17.215000 N.pl3     1 <1>        -0.015000 
     12 C          26.413000   22.145000   16.423000 C.ar      1 <1>         0.181300 
     13 C          26.213000   22.729000   15.098000 C.ar      1 <1>        -0.146600 
     14 C          26.469000   24.087000   14.880000 C.ar      1 <1>        -0.029900 
     15 H          26.796000   24.726000   15.700000 H         1 <1>         0.164800 
     16 C          26.304000   24.651000   13.608000 C.ar      1 <1>        -0.351500 
     17 H          26.509000   25.712000   13.494000 H         1 <1>         0.150400 
     18 C          25.890000   23.858000   12.538000 C.ar      1 <1>         0.469800 
     19 C          25.648000   22.499000   12.751000 C.ar      1 <1>        -0.387700 
     20 H          25.331000   21.866000   11.923000 H         1 <1>         0.216800 
     21 C          25.813000   21.934000   14.019000 C.ar      1 <1>        -0.019200 
     22 H          25.628000   20.869000   14.150000 H         1 <1>         0.159300 
     23 O          25.692000   24.282000   11.253000 O.3       1 <1>        -0.491700 
     24 C          25.931000   25.666000   10.981000 C.3       1 <1>         0.404400 
     25 H          26.976000   25.919000   11.191000 H         1 <1>        -0.002100 
     26 H          25.261000   26.292000   11.583000 H         1 <1>         0.001100 
     27 C          25.647000   25.907000    9.510000 C.3       1 <1>        -0.325000 
     28 H          25.820000   26.953000    9.245000 H         1 <1>         0.076700 
     29 H          24.610000   25.648000    9.270000 H         1 <1>         0.099800 
     30 H          26.286000   25.273000    8.885000 H         1 <1>         0.101200 
     31 C          27.608000   22.063000   17.116000 C.ar      1 <1>        -0.410300 
     32 H          28.559000   22.480000   16.808000 H         1 <1>         0.266200 
     33 C          27.359000   21.266000   18.252000 C.ar      1 <1>        -0.162000 
     34 N          26.074000   20.867000   18.278000 N.ar      1 <1>        -0.289000 
     35 C          28.364000   20.854000   19.294000 C.3       1 <1>         1.498400 
     36 F          27.937000   21.113000   20.566000 F         1 <1>        -0.452900 
     37 F          29.562000   21.497000   19.159000 F         1 <1>        -0.457400 
     38 F          28.643000   19.517000   19.248000 F         1 <1>        -0.447000 
     39 S          19.486000   21.029000   16.825000 S.o2      1 <1>         2.427300 
     40 O          18.925000   22.288000   16.368000 O.2       1 <1>        -0.990900 
     41 O          18.977000   20.387000   18.024000 O.2       1 <1>        -0.984500 
     42 N          19.319000   19.925000   15.576000 N.pl3     1 <1>        -1.304400 
     43 H          18.816000   20.337000   14.785000 H         1 <1>         0.484900 
     44 H          18.864000   19.068000   15.901000 H         1 <1>         0.488500 
@<TRIPOS>BOND
     1    1    2 ar   
     2    2    3 1    
     3    2    4 ar   
     4    4    5 1    
     5    4    6 ar   
     6    6    7 ar   
     7    7    8 1    
     8    7    9 ar   
     9    9   10 1    
    10    9    1 ar   
    11    6   11 1    
    12   11   12 ar   
    13   12   13 1    
    14   13   14 ar   
    15   14   15 1    
    16   14   16 ar   
    17   16   17 1    
    18   16   18 ar   
    19   18   19 ar   
    20   19   20 1    
    21   19   21 ar   
    22   21   22 1    
    23   21   13 ar   
    24   18   23 1    
    25   23   24 1    
    26   24   25 1    
    27   24   26 1    
    28   24   27 1    
    29   27   28 1    
    30   27   29 1    
    31   27   30 1    
    32   12   31 ar   
    33   31   32 1    
    34   31   33 ar   
    35   33   34 ar   
    36   34   11 ar   
    37   33   35 1    
    38   35   36 1    
    39   35   37 1    
    40   35   38 1    
    41    1   39 1    
    42   39   40 2    
    43   39   41 2    
    44   39   42 1    
    45   42   43 1    
    46   42   44 1    
@<TRIPOS>SUBSTRUCTURE
     1 ****        1 TEMP              0 ****  ****    0 ROOT 
@<TRIPOS>SET
UNITY_3DHIT     STATIC     ATOMS    <user>   **** Atoms matching 3D or FLEX Search
0
