#	Name:			8-1q
#	Creating user name:	jeff
#	Creation time:		Fri Dec 13 09:53:09 2002

#	Modifying user name:	jeff
#	Modification time:	Fri Dec 13 09:53:11 2002

@<TRIPOS>MOLECULE
8-1q
   41    43     1     0     1
SMALL
USER_CHARGES
****
From 3DB ct
@<TRIPOS>ATOM
      1 C          21.248000   21.184000   16.948000 C.ar      1 <1>        -0.620000 
      2 C          21.965000   20.319000   17.774000 C.ar      1 <1>         0.065100 
      3 H          21.457000   19.557000   18.361000 H         1 <1>         0.186300 
      4 C          23.357000   20.434000   17.854000 C.ar      1 <1>        -0.209000 
      5 H          23.891000   19.744000   18.506000 H         1 <1>         0.187400 
      6 C          24.046000   21.402000   17.097000 C.ar      1 <1>         0.295200 
      7 C          23.309000   22.271000   16.283000 C.ar      1 <1>        -0.268400 
      8 H          23.771000   23.078000   15.723000 H         1 <1>         0.155100 
      9 C          21.915000   22.158000   16.201000 C.ar      1 <1>         0.086800 
     10 H          21.358000   22.843000   15.564000 H         1 <1>         0.180300 
     11 N          25.472000   21.489000   17.216000 N.pl3     1 <1>         0.016400 
     12 C          26.414000   22.147000   16.424000 C.ar      1 <1>         0.113600 
     13 C          26.213000   22.730000   15.099000 C.ar      1 <1>         0.122600 
     14 C          26.467000   24.089000   14.880000 C.ar      1 <1>        -0.278000 
     15 H          26.789000   24.730000   15.699000 H         1 <1>         0.190500 
     16 C          26.297000   24.647000   13.608000 C.ar      1 <1>        -0.002000 
     17 H          26.479000   25.712000   13.480000 H         1 <1>         0.135800 
     18 C          25.889000   23.852000   12.533000 C.ar      1 <1>        -0.085300 
     19 C          25.637000   22.494000   12.751000 C.ar      1 <1>        -0.131700 
     20 H          25.313000   21.851000   11.934000 H         1 <1>         0.190400 
     21 C          25.808000   21.934000   14.022000 C.ar      1 <1>        -0.220100 
     22 H          25.620000   20.870000   14.158000 H         1 <1>         0.181100 
     23 S          25.634000   24.519000   10.898000 S.3       1 <1>        -0.054100 
     24 C          26.093000   26.256000   11.172000 C.3       1 <1>        -0.221800 
     25 H          26.129000   26.768000   10.207000 H         1 <1>         0.144300 
     26 H          27.080000   26.324000   11.638000 H         1 <1>         0.077500 
     27 H          25.354000   26.761000   11.799000 H         1 <1>         0.080700 
     28 C          27.610000   22.065000   17.115000 C.ar      1 <1>        -0.401800 
     29 H          28.561000   22.481000   16.807000 H         1 <1>         0.267600 
     30 C          27.363000   21.263000   18.248000 C.ar      1 <1>        -0.159200 
     31 N          26.077000   20.866000   18.277000 N.ar      1 <1>        -0.290500 
     32 C          28.372000   20.842000   19.283000 C.3       1 <1>         1.499200 
     33 F          29.522000   21.578000   19.231000 F         1 <1>        -0.457800 
     34 F          28.749000   19.537000   19.139000 F         1 <1>        -0.447400 
     35 F          27.901000   20.967000   20.560000 F         1 <1>        -0.452300 
     36 S          19.488000   21.042000   16.814000 S.o2      1 <1>         2.429600 
     37 O          18.933000   22.300000   16.347000 O.2       1 <1>        -0.991000 
     38 O          18.974000   20.410000   18.015000 O.2       1 <1>        -0.985100 
     39 N          19.317000   19.945000   15.559000 N.pl3     1 <1>        -1.301900 
     40 H          18.831000   20.367000   14.764000 H         1 <1>         0.484100 
     41 H          18.845000   19.093000   15.875000 H         1 <1>         0.487500 
@<TRIPOS>BOND
     1    1    2 ar   
     2    2    3 1    
     3    2    4 ar   
     4    4    5 1    
     5    4    6 ar   
     6    6    7 ar   
     7    7    8 1    
     8    7    9 ar   
     9    9   10 1    
    10    9    1 ar   
    11    6   11 1    
    12   11   12 ar   
    13   12   13 1    
    14   13   14 ar   
    15   14   15 1    
    16   14   16 ar   
    17   16   17 1    
    18   16   18 ar   
    19   18   19 ar   
    20   19   20 1    
    21   19   21 ar   
    22   21   22 1    
    23   21   13 ar   
    24   18   23 1    
    25   23   24 1    
    26   24   25 1    
    27   24   26 1    
    28   24   27 1    
    29   12   28 ar   
    30   28   29 1    
    31   28   30 ar   
    32   30   31 ar   
    33   31   11 ar   
    34   30   32 1    
    35   32   33 1    
    36   32   34 1    
    37   32   35 1    
    38    1   36 1    
    39   36   37 2    
    40   36   38 2    
    41   36   39 1    
    42   39   40 1    
    43   39   41 1    
@<TRIPOS>SUBSTRUCTURE
     1 ****        1 TEMP              0 ****  ****    0 ROOT 
@<TRIPOS>SET
UNITY_3DHIT     STATIC     ATOMS    <user>   **** Atoms matching 3D or FLEX Search
0
