#	Name:			8-1r
#	Creating user name:	jeff
#	Creation time:		Fri Dec 13 09:53:11 2002

#	Modifying user name:	jeff
#	Modification time:	Fri Dec 13 09:53:13 2002

@<TRIPOS>MOLECULE
8-1r
   39    41     1     0     1
SMALL
USER_CHARGES
****
From 3DB ct
@<TRIPOS>ATOM
      1 C          21.248000   21.184000   16.949000 C.ar      1 <1>        -0.631500 
      2 C          21.964000   20.319000   17.775000 C.ar      1 <1>         0.064600 
      3 H          21.456000   19.557000   18.363000 H         1 <1>         0.185700 
      4 C          23.357000   20.434000   17.855000 C.ar      1 <1>        -0.219400 
      5 H          23.891000   19.744000   18.508000 H         1 <1>         0.187300 
      6 C          24.046000   21.401000   17.098000 C.ar      1 <1>         0.341600 
      7 C          23.308000   22.271000   16.283000 C.ar      1 <1>        -0.310300 
      8 H          23.771000   23.077000   15.723000 H         1 <1>         0.176300 
      9 C          21.915000   22.158000   16.202000 C.ar      1 <1>         0.107600 
     10 H          21.358000   22.843000   15.565000 H         1 <1>         0.175600 
     11 N          25.471000   21.489000   17.216000 N.pl3     1 <1>        -0.027000 
     12 C          26.414000   22.145000   16.423000 C.ar      1 <1>         0.217700 
     13 C          26.213000   22.730000   15.099000 C.ar      1 <1>        -0.215500 
     14 C          26.466000   24.089000   14.882000 C.ar      1 <1>         0.049200 
     15 H          26.784000   24.731000   15.701000 H         1 <1>         0.148500 
     16 C          26.298000   24.646000   13.608000 C.ar      1 <1>        -0.529800 
     17 H          26.482000   25.710000   13.471000 H         1 <1>         0.210000 
     18 C          25.908000   23.855000   12.526000 C.ar      1 <1>         0.782100 
     19 C          25.643000   22.503000   12.749000 C.ar      1 <1>        -0.535000 
     20 H          25.310000   21.867000   11.930000 H         1 <1>         0.213400 
     21 C          25.809000   21.938000   14.019000 C.ar      1 <1>         0.013300 
     22 H          25.615000   20.875000   14.152000 H         1 <1>         0.157400 
     23 N          25.684000   24.421000   11.286000 N.pl3     1 <1>        -1.259100 
     24 H          25.524000   23.833000   10.471000 H         1 <1>         0.528200 
     25 H          25.995000   25.369000   11.088000 H         1 <1>         0.528500 
     26 C          27.609000   22.063000   17.114000 C.ar      1 <1>        -0.429300 
     27 H          28.561000   22.479000   16.805000 H         1 <1>         0.267000 
     28 C          27.362000   21.265000   18.249000 C.ar      1 <1>        -0.158300 
     29 N          26.077000   20.868000   18.279000 N.ar      1 <1>        -0.295200 
     30 C          28.370000   20.849000   19.287000 C.3       1 <1>         1.502800 
     31 F          27.922000   21.042000   20.563000 F         1 <1>        -0.454900 
     32 F          29.546000   21.539000   19.191000 F         1 <1>        -0.458700 
     33 F          28.697000   19.526000   19.192000 F         1 <1>        -0.449700 
     34 S          19.487000   21.040000   16.813000 S.o2      1 <1>         2.426800 
     35 O          18.947000   22.246000   16.210000 O.2       1 <1>        -0.991700 
     36 O          18.957000   20.543000   18.070000 O.2       1 <1>        -0.985800 
     37 N          19.319000   19.817000   15.681000 N.pl3     1 <1>        -1.302800 
     38 H          18.843000   20.156000   14.841000 H         1 <1>         0.483400 
     39 H          18.839000   19.007000   16.081000 H         1 <1>         0.487000 
@<TRIPOS>BOND
     1    1    2 ar   
     2    2    3 1    
     3    2    4 ar   
     4    4    5 1    
     5    4    6 ar   
     6    6    7 ar   
     7    7    8 1    
     8    7    9 ar   
     9    9   10 1    
    10    9    1 ar   
    11    6   11 1    
    12   11   12 ar   
    13   12   13 1    
    14   13   14 ar   
    15   14   15 1    
    16   14   16 ar   
    17   16   17 1    
    18   16   18 ar   
    19   18   19 ar   
    20   19   20 1    
    21   19   21 ar   
    22   21   22 1    
    23   21   13 ar   
    24   18   23 1    
    25   23   24 1    
    26   23   25 1    
    27   12   26 ar   
    28   26   27 1    
    29   26   28 ar   
    30   28   29 ar   
    31   29   11 ar   
    32   28   30 1    
    33   30   31 1    
    34   30   32 1    
    35   30   33 1    
    36    1   34 1    
    37   34   35 2    
    38   34   36 2    
    39   34   37 1    
    40   37   38 1    
    41   37   39 1    
@<TRIPOS>SUBSTRUCTURE
     1 ****        1 TEMP              0 ****  ****    0 ROOT 
@<TRIPOS>SET
UNITY_3DHIT     STATIC     ATOMS    <user>   **** Atoms matching 3D or FLEX Search
0
