#	Name:			8-1s
#	Creating user name:	jeff
#	Creation time:		Fri Dec 13 09:53:13 2002

#	Modifying user name:	jeff
#	Modification time:	Fri Dec 13 09:53:16 2002

@<TRIPOS>MOLECULE
8-1s
   45    47     1     0     1
SMALL
USER_CHARGES
****
From 3DB ct
@<TRIPOS>ATOM
      1 C          21.240000   21.187000   16.947000 C.ar      1 <1>        -0.600100 
      2 C          21.959000   20.323000   17.772000 C.ar      1 <1>         0.069600 
      3 H          21.450000   19.560000   18.358000 H         1 <1>         0.187000 
      4 C          23.352000   20.441000   17.852000 C.ar      1 <1>        -0.267200 
      5 H          23.885000   19.751000   18.506000 H         1 <1>         0.206100 
      6 C          24.040000   21.410000   17.097000 C.ar      1 <1>         0.379000 
      7 C          23.299000   22.274000   16.280000 C.ar      1 <1>        -0.256900 
      8 H          23.756000   23.077000   15.712000 H         1 <1>         0.164000 
      9 C          21.904000   22.159000   16.198000 C.ar      1 <1>         0.030500 
     10 H          21.351000   22.843000   15.558000 H         1 <1>         0.191500 
     11 N          25.468000   21.497000   17.217000 N.pl3     1 <1>        -0.063600 
     12 C          26.416000   22.154000   16.430000 C.ar      1 <1>         0.411700 
     13 C          26.212000   22.776000   15.115000 C.ar      1 <1>        -0.338800 
     14 C          26.470000   24.153000   14.883000 C.ar      1 <1>         0.536800 
     15 C          26.303000   24.639000   13.572000 C.ar      1 <1>        -0.316200 
     16 H          26.465000   25.692000   13.348000 H         1 <1>         0.178100 
     17 C          25.907000   23.803000   12.524000 C.ar      1 <1>        -0.097300 
     18 H          25.783000   24.212000   11.522000 H         1 <1>         0.163900 
     19 C          25.674000   22.454000   12.759000 C.ar      1 <1>        -0.198100 
     20 H          25.374000   21.800000   11.943000 H         1 <1>         0.167200 
     21 C          25.831000   21.942000   14.045000 C.ar      1 <1>        -0.065400 
     22 H          25.661000   20.878000   14.208000 H         1 <1>         0.140500 
     23 N          26.861000   25.016000   15.916000 N.pl3     1 <1>        -0.551200 
     24 C          25.792000   25.443000   16.820000 C.3       1 <1>         0.092900 
     25 H          26.210000   25.997000   17.668000 H         1 <1>         0.078000 
     26 H          25.086000   26.099000   16.299000 H         1 <1>         0.021300 
     27 H          25.239000   24.596000   17.235000 H         1 <1>        -0.002500 
     28 C          27.904000   26.004000   15.639000 C.3       1 <1>        -0.136100 
     29 H          27.509000   26.856000   15.075000 H         1 <1>         0.079100 
     30 H          28.317000   26.386000   16.579000 H         1 <1>         0.119900 
     31 H          28.734000   25.556000   15.081000 H         1 <1>         0.097300 
     32 C          27.619000   22.020000   17.100000 C.ar      1 <1>        -0.525700 
     33 H          28.576000   22.419000   16.784000 H         1 <1>         0.290700 
     34 C          27.364000   21.220000   18.230000 C.ar      1 <1>        -0.130000 
     35 N          26.069000   20.860000   18.274000 N.ar      1 <1>        -0.318800 
     36 C          28.383000   20.772000   19.245000 C.3       1 <1>         1.522000 
     37 F          29.612000   21.330000   19.032000 F         1 <1>        -0.460200 
     38 F          28.570000   19.418000   19.226000 F         1 <1>        -0.455200 
     39 F          28.041000   21.090000   20.529000 F         1 <1>        -0.461800 
     40 S          19.480000   21.019000   16.826000 S.o2      1 <1>         2.433100 
     41 O          18.914000   22.274000   16.366000 O.2       1 <1>        -0.992000 
     42 O          18.973000   20.379000   18.027000 O.2       1 <1>        -0.988700 
     43 N          19.318000   19.913000   15.579000 N.pl3     1 <1>        -1.310000 
     44 H          18.818000   20.322000   14.785000 H         1 <1>         0.486800 
     45 H          18.865000   19.054000   15.903000 H         1 <1>         0.488800 
@<TRIPOS>BOND
     1    1    2 ar   
     2    2    3 1    
     3    2    4 ar   
     4    4    5 1    
     5    4    6 ar   
     6    6    7 ar   
     7    7    8 1    
     8    7    9 ar   
     9    9   10 1    
    10    9    1 ar   
    11    6   11 1    
    12   11   12 ar   
    13   12   13 1    
    14   13   14 ar   
    15   14   15 ar   
    16   15   16 1    
    17   15   17 ar   
    18   17   18 1    
    19   17   19 ar   
    20   19   20 1    
    21   19   21 ar   
    22   21   22 1    
    23   21   13 ar   
    24   14   23 1    
    25   23   24 1    
    26   24   25 1    
    27   24   26 1    
    28   24   27 1    
    29   23   28 1    
    30   28   29 1    
    31   28   30 1    
    32   28   31 1    
    33   12   32 ar   
    34   32   33 1    
    35   32   34 ar   
    36   34   35 ar   
    37   35   11 ar   
    38   34   36 1    
    39   36   37 1    
    40   36   38 1    
    41   36   39 1    
    42    1   40 1    
    43   40   41 2    
    44   40   42 2    
    45   40   43 1    
    46   43   44 1    
    47   43   45 1    
@<TRIPOS>SUBSTRUCTURE
     1 ****        1 TEMP              0 ****  ****    0 ROOT 
@<TRIPOS>SET
UNITY_3DHIT     STATIC     ATOMS    <user>   **** Atoms matching 3D or FLEX Search
0
