#	Name:			8-1t
#	Creating user name:	jeff
#	Creation time:		Fri Dec 13 09:53:16 2002

#	Modifying user name:	jeff
#	Modification time:	Fri Dec 13 09:53:18 2002

@<TRIPOS>MOLECULE
8-1t
   42    44     1     0     1
SMALL
USER_CHARGES
****
From 3DB ct
@<TRIPOS>ATOM
      1 C          21.248000   21.187000   16.949000 C.ar      1 <1>        -0.623800 
      2 C          21.964000   20.321000   17.776000 C.ar      1 <1>         0.068700 
      3 H          21.456000   19.559000   18.362000 H         1 <1>         0.184200 
      4 C          23.357000   20.436000   17.857000 C.ar      1 <1>        -0.224000 
      5 H          23.890000   19.746000   18.509000 H         1 <1>         0.188900 
      6 C          24.047000   21.402000   17.099000 C.ar      1 <1>         0.331000 
      7 C          23.310000   22.273000   16.285000 C.ar      1 <1>        -0.301400 
      8 H          23.774000   23.078000   15.725000 H         1 <1>         0.175700 
      9 C          21.916000   22.160000   16.202000 C.ar      1 <1>         0.094100 
     10 H          21.361000   22.846000   15.565000 H         1 <1>         0.177800 
     11 N          25.472000   21.488000   17.217000 N.pl3     1 <1>        -0.003500 
     12 C          26.415000   22.144000   16.423000 C.ar      1 <1>         0.173400 
     13 C          26.212000   22.730000   15.100000 C.ar      1 <1>        -0.153800 
     14 C          26.468000   24.085000   14.879000 C.ar      1 <1>        -0.046000 
     15 H          26.799000   24.726000   15.696000 H         1 <1>         0.162000 
     16 C          26.294000   24.645000   13.606000 C.ar      1 <1>        -0.337600 
     17 H          26.500000   25.707000   13.487000 H         1 <1>         0.172100 
     18 C          25.872000   23.869000   12.521000 C.ar      1 <1>         0.514300 
     19 C          25.636000   22.508000   12.752000 C.ar      1 <1>        -0.514000 
     20 H          25.314000   21.864000   11.935000 H         1 <1>         0.199000 
     21 C          25.807000   21.939000   14.021000 C.ar      1 <1>         0.033000 
     22 H          25.620000   20.875000   14.150000 H         1 <1>         0.146300 
     23 N          25.687000   24.376000   11.252000 N.pl3     1 <1>        -0.741800 
     24 H          25.372000   23.748000   10.511000 H         1 <1>         0.440900 
     25 C          25.893000   25.762000   10.886000 C.3       1 <1>         0.048400 
     26 H          25.674000   25.895000    9.822000 H         1 <1>         0.074400 
     27 H          26.932000   26.063000   11.054000 H         1 <1>         0.056700 
     28 H          25.226000   26.421000   11.449000 H         1 <1>         0.057700 
     29 C          27.610000   22.062000   17.114000 C.ar      1 <1>        -0.411500 
     30 H          28.562000   22.479000   16.806000 H         1 <1>         0.265000 
     31 C          27.363000   21.264000   18.250000 C.ar      1 <1>        -0.162600 
     32 N          26.078000   20.866000   18.279000 N.ar      1 <1>        -0.297700 
     33 C          28.369000   20.851000   19.290000 C.3       1 <1>         1.498700 
     34 F          27.933000   21.082000   20.564000 F         1 <1>        -0.453000 
     35 F          29.558000   21.515000   19.172000 F         1 <1>        -0.458200 
     36 F          28.670000   19.520000   19.224000 F         1 <1>        -0.448800 
     37 S          19.488000   21.039000   16.809000 S.o2      1 <1>         2.427000 
     38 O          18.932000   22.296000   16.339000 O.2       1 <1>        -0.992400 
     39 O          18.972000   20.408000   18.010000 O.2       1 <1>        -0.986000 
     40 N          19.325000   19.938000   15.557000 N.pl3     1 <1>        -1.304900 
     41 H          18.841000   20.358000   14.758000 H         1 <1>         0.483600 
     42 H          18.854000   19.087000   15.873000 H         1 <1>         0.487800 
@<TRIPOS>BOND
     1    1    2 ar   
     2    2    3 1    
     3    2    4 ar   
     4    4    5 1    
     5    4    6 ar   
     6    6    7 ar   
     7    7    8 1    
     8    7    9 ar   
     9    9   10 1    
    10    9    1 ar   
    11    6   11 1    
    12   11   12 ar   
    13   12   13 1    
    14   13   14 ar   
    15   14   15 1    
    16   14   16 ar   
    17   16   17 1    
    18   16   18 ar   
    19   18   19 ar   
    20   19   20 1    
    21   19   21 ar   
    22   21   22 1    
    23   21   13 ar   
    24   18   23 1    
    25   23   24 1    
    26   23   25 1    
    27   25   26 1    
    28   25   27 1    
    29   25   28 1    
    30   12   29 ar   
    31   29   30 1    
    32   29   31 ar   
    33   31   32 ar   
    34   32   11 ar   
    35   31   33 1    
    36   33   34 1    
    37   33   35 1    
    38   33   36 1    
    39    1   37 1    
    40   37   38 2    
    41   37   39 2    
    42   37   40 1    
    43   40   41 1    
    44   40   42 1    
@<TRIPOS>SUBSTRUCTURE
     1 ****        1 TEMP              0 ****  ****    0 ROOT 
@<TRIPOS>SET
UNITY_3DHIT     STATIC     ATOMS    <user>   **** Atoms matching 3D or FLEX Search
0
