#	Name:			8-1u
#	Creating user name:	jeff
#	Creation time:		Fri Dec 13 09:53:18 2002

#	Modifying user name:	jeff
#	Modification time:	Fri Dec 13 09:53:21 2002

@<TRIPOS>MOLECULE
8-1u
   45    47     1     0     1
SMALL
USER_CHARGES
****
From 3DB ct
@<TRIPOS>ATOM
      1 C          21.243000   21.184000   16.949000 C.ar      1 <1>        -0.629100 
      2 C          21.962000   20.322000   17.776000 C.ar      1 <1>         0.070700 
      3 H          21.456000   19.559000   18.363000 H         1 <1>         0.183400 
      4 C          23.355000   20.441000   17.857000 C.ar      1 <1>        -0.222100 
      5 H          23.889000   19.753000   18.511000 H         1 <1>         0.188700 
      6 C          24.043000   21.411000   17.101000 C.ar      1 <1>         0.332200 
      7 C          23.302000   22.277000   16.287000 C.ar      1 <1>        -0.306700 
      8 H          23.760000   23.086000   15.727000 H         1 <1>         0.172900 
      9 C          21.909000   22.159000   16.202000 C.ar      1 <1>         0.100100 
     10 H          21.352000   22.841000   15.562000 H         1 <1>         0.177900 
     11 N          25.470000   21.496000   17.219000 N.pl3     1 <1>         0.000600 
     12 C          26.418000   22.135000   16.418000 C.ar      1 <1>         0.149100 
     13 C          26.217000   22.728000   15.098000 C.ar      1 <1>        -0.051900 
     14 C          26.477000   24.081000   14.885000 C.ar      1 <1>        -0.063200 
     15 H          26.811000   24.717000   15.703000 H         1 <1>         0.159400 
     16 C          26.301000   24.649000   13.613000 C.ar      1 <1>        -0.331800 
     17 H          26.514000   25.712000   13.520000 H         1 <1>         0.169600 
     18 C          25.875000   23.895000   12.505000 C.ar      1 <1>         0.343400 
     19 C          25.642000   22.529000   12.746000 C.ar      1 <1>        -0.331400 
     20 H          25.315000   21.866000   11.948000 H         1 <1>         0.174300 
     21 C          25.812000   21.951000   14.015000 C.ar      1 <1>        -0.108000 
     22 H          25.621000   20.885000   14.136000 H         1 <1>         0.169200 
     23 N          25.702000   24.463000   11.249000 N.pl3     1 <1>        -0.378400 
     24 C          25.881000   25.900000   11.033000 C.3       1 <1>         0.014300 
     25 H          25.665000   26.187000    9.998000 H         1 <1>         0.082200 
     26 H          26.915000   26.197000   11.239000 H         1 <1>         0.046700 
     27 H          25.201000   26.476000   11.671000 H         1 <1>         0.048600 
     28 C          25.288000   23.656000   10.099000 C.3       1 <1>         0.022800 
     29 H          25.248000   24.248000    9.178000 H         1 <1>         0.081400 
     30 H          24.287000   23.241000   10.259000 H         1 <1>         0.043000 
     31 H          25.996000   22.840000    9.920000 H         1 <1>         0.043800 
     32 C          27.617000   22.036000   17.101000 C.ar      1 <1>        -0.413600 
     33 H          28.572000   22.435000   16.782000 H         1 <1>         0.262300 
     34 C          27.363000   21.258000   18.247000 C.ar      1 <1>        -0.150300 
     35 N          26.071000   20.888000   18.292000 N.ar      1 <1>        -0.302800 
     36 C          28.368000   20.842000   19.289000 C.3       1 <1>         1.493800 
     37 F          28.003000   21.226000   20.549000 F         1 <1>        -0.453500 
     38 F          29.608000   21.375000   19.074000 F         1 <1>        -0.456700 
     39 F          28.540000   19.487000   19.336000 F         1 <1>        -0.447600 
     40 S          19.484000   21.023000   16.813000 S.o2      1 <1>         2.431400 
     41 O          18.900000   22.328000   16.554000 O.2       1 <1>        -0.994000 
     42 O          18.995000   20.202000   17.906000 O.2       1 <1>        -0.986600 
     43 N          19.323000   20.126000   15.408000 N.pl3     1 <1>        -1.305000 
     44 H          18.818000   20.652000   14.691000 H         1 <1>         0.483500 
     45 H          18.875000   19.225000   15.596000 H         1 <1>         0.487600 
@<TRIPOS>BOND
     1    1    2 ar   
     2    2    3 1    
     3    2    4 ar   
     4    4    5 1    
     5    4    6 ar   
     6    6    7 ar   
     7    7    8 1    
     8    7    9 ar   
     9    9   10 1    
    10    9    1 ar   
    11    6   11 1    
    12   11   12 ar   
    13   12   13 1    
    14   13   14 ar   
    15   14   15 1    
    16   14   16 ar   
    17   16   17 1    
    18   16   18 ar   
    19   18   19 ar   
    20   19   20 1    
    21   19   21 ar   
    22   21   22 1    
    23   21   13 ar   
    24   18   23 1    
    25   23   24 1    
    26   24   25 1    
    27   24   26 1    
    28   24   27 1    
    29   23   28 1    
    30   28   29 1    
    31   28   30 1    
    32   28   31 1    
    33   12   32 ar   
    34   32   33 1    
    35   32   34 ar   
    36   34   35 ar   
    37   35   11 ar   
    38   34   36 1    
    39   36   37 1    
    40   36   38 1    
    41   36   39 1    
    42    1   40 1    
    43   40   41 2    
    44   40   42 2    
    45   40   43 1    
    46   43   44 1    
    47   43   45 1    
@<TRIPOS>SUBSTRUCTURE
     1 ****        1 TEMP              0 ****  ****    0 ROOT 
@<TRIPOS>SET
UNITY_3DHIT     STATIC     ATOMS    <user>   **** Atoms matching 3D or FLEX Search
0
