#	Name:			8-1v
#	Creating user name:	jeff
#	Creation time:		Fri Dec 13 09:53:21 2002

#	Modifying user name:	jeff
#	Modification time:	Fri Dec 13 09:53:23 2002

@<TRIPOS>MOLECULE
8-1v
   41    43     1     0     1
SMALL
USER_CHARGES
****
From 3DB ct
@<TRIPOS>ATOM
      1 C          21.248000   21.186000   16.949000 C.ar      1 <1>        -0.624000 
      2 C          21.965000   20.320000   17.774000 C.ar      1 <1>         0.053800 
      3 H          21.458000   19.557000   18.361000 H         1 <1>         0.188900 
      4 C          23.357000   20.435000   17.854000 C.ar      1 <1>        -0.198300 
      5 H          23.892000   19.744000   18.505000 H         1 <1>         0.185400 
      6 C          24.046000   21.402000   17.097000 C.ar      1 <1>         0.294500 
      7 C          23.309000   22.271000   16.281000 C.ar      1 <1>        -0.276900 
      8 H          23.771000   23.076000   15.720000 H         1 <1>         0.142100 
      9 C          21.915000   22.159000   16.201000 C.ar      1 <1>         0.108400 
     10 H          21.358000   22.844000   15.564000 H         1 <1>         0.174100 
     11 N          25.471000   21.489000   17.215000 N.pl3     1 <1>         0.028200 
     12 C          26.414000   22.146000   16.423000 C.ar      1 <1>         0.084600 
     13 C          26.211000   22.731000   15.099000 C.ar      1 <1>         0.141500 
     14 C          26.470000   24.089000   14.881000 C.ar      1 <1>        -0.179600 
     15 H          26.802000   24.727000   15.699000 H         1 <1>         0.162700 
     16 C          26.299000   24.648000   13.611000 C.ar      1 <1>        -0.121800 
     17 H          26.505000   25.707000   13.464000 H         1 <1>         0.171000 
     18 C          25.872000   23.857000   12.536000 C.ar      1 <1>        -0.058900 
     19 C          25.639000   22.492000   12.750000 C.ar      1 <1>        -0.110200 
     20 H          25.326000   21.852000   11.926000 H         1 <1>         0.176200 
     21 C          25.809000   21.933000   14.021000 C.ar      1 <1>        -0.241700 
     22 H          25.627000   20.868000   14.156000 H         1 <1>         0.176900 
     23 C          25.703000   24.456000   11.166000 C.3       1 <1>         0.295300 
     24 H          25.411000   25.509000   11.233000 H         1 <1>        -0.004100 
     25 H          24.932000   23.923000   10.599000 H         1 <1>        -0.009800 
     26 O          26.944000   24.359000   10.472000 O.3       1 <1>        -0.645200 
     27 H          26.773000   24.761000    9.594000 H         1 <1>         0.407600 
     28 C          27.610000   22.063000   17.114000 C.ar      1 <1>        -0.392800 
     29 H          28.561000   22.479000   16.805000 H         1 <1>         0.262200 
     30 C          27.362000   21.264000   18.249000 C.ar      1 <1>        -0.149100 
     31 N          26.076000   20.868000   18.278000 N.ar      1 <1>        -0.297900 
     32 C          28.368000   20.849000   19.288000 C.3       1 <1>         1.489700 
     33 F          29.566000   21.494000   19.155000 F         1 <1>        -0.454400 
     34 F          28.648000   19.513000   19.236000 F         1 <1>        -0.445700 
     35 F          27.942000   21.102000   20.562000 F         1 <1>        -0.451500 
     36 S          19.487000   21.039000   16.815000 S.o2      1 <1>         2.417600 
     37 O          18.950000   22.228000   16.177000 O.2       1 <1>        -0.987500 
     38 O          18.954000   20.579000   18.085000 O.2       1 <1>        -0.981100 
     39 N          19.321000   19.783000   15.720000 N.pl3     1 <1>        -1.307200 
     40 H          18.849000   20.096000   14.868000 H         1 <1>         0.486500 
     41 H          18.839000   18.986000   16.142000 H         1 <1>         0.490600 
@<TRIPOS>BOND
     1    1    2 ar   
     2    2    3 1    
     3    2    4 ar   
     4    4    5 1    
     5    4    6 ar   
     6    6    7 ar   
     7    7    8 1    
     8    7    9 ar   
     9    9   10 1    
    10    9    1 ar   
    11    6   11 1    
    12   11   12 ar   
    13   12   13 1    
    14   13   14 ar   
    15   14   15 1    
    16   14   16 ar   
    17   16   17 1    
    18   16   18 ar   
    19   18   19 ar   
    20   19   20 1    
    21   19   21 ar   
    22   21   22 1    
    23   21   13 ar   
    24   18   23 1    
    25   23   24 1    
    26   23   25 1    
    27   23   26 1    
    28   26   27 1    
    29   12   28 ar   
    30   28   29 1    
    31   28   30 ar   
    32   30   31 ar   
    33   31   11 ar   
    34   30   32 1    
    35   32   33 1    
    36   32   34 1    
    37   32   35 1    
    38    1   36 1    
    39   36   37 2    
    40   36   38 2    
    41   36   39 1    
    42   39   40 1    
    43   39   41 1    
@<TRIPOS>SUBSTRUCTURE
     1 ****        1 TEMP              0 ****  ****    0 ROOT 
@<TRIPOS>SET
UNITY_3DHIT     STATIC     ATOMS    <user>   **** Atoms matching 3D or FLEX Search
0
