#	Name:			8-1w
#	Creating user name:	jeff
#	Creation time:		Sun Dec 22 15:52:41 2002

#	Modifying user name:	jeff
#	Modification time:	Sun Dec 22 15:52:43 2002

@<TRIPOS>MOLECULE
8-1w
   39    41     1     0     1
SMALL
USER_CHARGES
****
From 3DB ct
@<TRIPOS>ATOM
      1 C          21.251000   21.187000   16.945000 C.ar      1 <1>        -0.633700 
      2 C          21.966000   20.322000   17.773000 C.ar      1 <1>         0.088500 
      3 H          21.457000   19.560000   18.360000 H         1 <1>         0.159800 
      4 C          23.358000   20.438000   17.856000 C.ar      1 <1>        -0.248300 
      5 H          23.892000   19.748000   18.509000 H         1 <1>         0.184300 
      6 C          24.048000   21.404000   17.099000 C.ar      1 <1>         0.342100 
      7 C          23.312000   22.274000   16.284000 C.ar      1 <1>        -0.262800 
      8 H          23.776000   23.081000   15.726000 H         1 <1>         0.193600 
      9 C          21.919000   22.161000   16.200000 C.ar      1 <1>         0.070700 
     10 H          21.363000   22.846000   15.562000 H         1 <1>         0.190900 
     11 N          25.473000   21.489000   17.218000 N.pl3     1 <1>        -0.012000 
     12 C          26.416000   22.145000   16.423000 C.ar      1 <1>         0.251100 
     13 C          26.210000   22.728000   15.100000 C.ar      1 <1>        -0.177300 
     14 C          26.468000   24.087000   14.881000 C.ar      1 <1>        -0.090700 
     15 H          26.802000   24.725000   15.698000 H         1 <1>         0.117300 
     16 C          26.290000   24.649000   13.612000 C.ar      1 <1>        -0.254800 
     17 H          26.490000   25.709000   13.475000 H         1 <1>         0.195500 
     18 C          25.862000   23.853000   12.542000 C.ar      1 <1>         0.176600 
     19 C          25.621000   22.490000   12.754000 C.ar      1 <1>        -0.263400 
     20 H          25.294000   21.851000   11.935000 H         1 <1>         0.199300 
     21 C          25.799000   21.930000   14.024000 C.ar      1 <1>        -0.123400 
     22 H          25.613000   20.866000   14.162000 H         1 <1>         0.126300 
     23 C          25.658000   24.405000   11.177000 C.2       1 <1>         0.698300 
     24 O          25.298000   23.770000   10.200000 O.2       1 <1>        -0.937400 
     25 O          25.916000   25.725000   11.113000 O.3       1 <1>        -0.937200 
     26 C          27.612000   22.061000   17.113000 C.ar      1 <1>        -0.446200 
     27 H          28.563000   22.477000   16.804000 H         1 <1>         0.264300 
     28 C          27.365000   21.263000   18.248000 C.ar      1 <1>        -0.167800 
     29 N          26.079000   20.868000   18.279000 N.ar      1 <1>        -0.332000 
     30 C          28.373000   20.846000   19.286000 C.3       1 <1>         1.494900 
     31 F          29.552000   21.527000   19.183000 F         1 <1>        -0.459300 
     32 F          28.690000   19.520000   19.198000 F         1 <1>        -0.453900 
     33 F          27.928000   21.049000   20.562000 F         1 <1>        -0.462500 
     34 S          19.491000   21.041000   16.806000 S.o2      1 <1>         2.423000 
     35 O          18.936000   22.298000   16.337000 O.2       1 <1>        -0.997400 
     36 O          18.974000   20.408000   18.006000 O.2       1 <1>        -0.998700 
     37 N          19.327000   19.942000   15.552000 N.pl3     1 <1>        -1.323300 
     38 H          18.841000   20.362000   14.756000 H         1 <1>         0.496900 
     39 H          18.857000   19.090000   15.868000 H         1 <1>         0.486500 
@<TRIPOS>BOND
     1    1    2 ar   
     2    2    3 1    
     3    2    4 ar   
     4    4    5 1    
     5    4    6 ar   
     6    6    7 ar   
     7    7    8 1    
     8    7    9 ar   
     9    9   10 1    
    10    9    1 ar   
    11    6   11 1    
    12   11   12 ar   
    13   12   13 1    
    14   13   14 ar   
    15   14   15 1    
    16   14   16 ar   
    17   16   17 1    
    18   16   18 ar   
    19   18   19 ar   
    20   19   20 1    
    21   19   21 ar   
    22   21   22 1    
    23   21   13 ar   
    24   18   23 1    
    25   23   24 2    
    26   23   25 1    
    27   12   26 ar   
    28   26   27 1    
    29   26   28 ar   
    30   28   29 ar   
    31   29   11 ar   
    32   28   30 1    
    33   30   31 1    
    34   30   32 1    
    35   30   33 1    
    36    1   34 1    
    37   34   35 2    
    38   34   36 2    
    39   34   37 1    
    40   37   38 1    
    41   37   39 1    
@<TRIPOS>SUBSTRUCTURE
     1 ****        1 TEMP              0 ****  ****    0 ROOT 
@<TRIPOS>SET
UNITY_3DHIT     STATIC     ATOMS    <user>   **** Atoms matching 3D or FLEX Search
0
