#	Name:			8-1x
#	Creating user name:	jeff
#	Creation time:		Fri Dec 13 09:53:25 2002

#	Modifying user name:	jeff
#	Modification time:	Fri Dec 13 09:53:28 2002

@<TRIPOS>MOLECULE
8-1x
   44    46     1     0     1
SMALL
USER_CHARGES
****
From 3DB ct
@<TRIPOS>ATOM
      1 C          21.250000   21.184000   16.947000 C.ar      1 <1>        -0.611200 
      2 C          21.965000   20.318000   17.773000 C.ar      1 <1>         0.053100 
      3 H          21.456000   19.556000   18.360000 H         1 <1>         0.188700 
      4 C          23.357000   20.432000   17.853000 C.ar      1 <1>        -0.210000 
      5 H          23.891000   19.741000   18.506000 H         1 <1>         0.188700 
      6 C          24.047000   21.398000   17.097000 C.ar      1 <1>         0.335100 
      7 C          23.311000   22.269000   16.282000 C.ar      1 <1>        -0.274500 
      8 H          23.775000   23.076000   15.725000 H         1 <1>         0.148600 
      9 C          21.917000   22.157000   16.200000 C.ar      1 <1>         0.078700 
     10 H          21.361000   22.844000   15.564000 H         1 <1>         0.185700 
     11 N          25.472000   21.486000   17.216000 N.pl3     1 <1>        -0.049600 
     12 C          26.414000   22.145000   16.424000 C.ar      1 <1>         0.216300 
     13 C          26.211000   22.727000   15.099000 C.ar      1 <1>        -0.020000 
     14 C          26.467000   24.085000   14.878000 C.ar      1 <1>        -0.222700 
     15 H          26.796000   24.712000   15.707000 H         1 <1>         0.194900 
     16 C          26.296000   24.654000   13.604000 C.ar      1 <1>         0.120400 
     17 C          25.869000   23.847000   12.534000 C.ar      1 <1>         0.161800 
     18 C          25.631000   22.488000   12.752000 C.ar      1 <1>        -0.167200 
     19 H          25.308000   21.824000   11.954000 H         1 <1>         0.186900 
     20 C          25.806000   21.931000   14.023000 C.ar      1 <1>        -0.195300 
     21 H          25.621000   20.867000   14.161000 H         1 <1>         0.183400 
     22 O          25.725000   24.483000   11.328000 O.3       1 <1>        -0.421500 
     23 C          26.013000   25.880000   11.289000 C.3       1 <1>         0.159300 
     24 H          25.858000   26.222000   10.261000 H         1 <1>         0.053400 
     25 H          27.058000   26.074000   11.552000 H         1 <1>         0.029100 
     26 H          25.328000   26.440000   11.934000 H         1 <1>         0.027700 
     27 C          26.568000   26.121000   13.406000 C.3       1 <1>        -0.313900 
     28 H          27.347000   26.265000   12.650000 H         1 <1>         0.097300 
     29 H          26.913000   26.595000   14.331000 H         1 <1>         0.093100 
     30 H          25.654000   26.635000   13.090000 H         1 <1>         0.120100 
     31 C          27.608000   22.070000   17.119000 C.ar      1 <1>        -0.438900 
     32 H          28.558000   22.491000   16.813000 H         1 <1>         0.275000 
     33 C          27.361000   21.270000   18.253000 C.ar      1 <1>        -0.151400 
     34 N          26.078000   20.865000   18.278000 N.ar      1 <1>        -0.286700 
     35 C          28.367000   20.861000   19.296000 C.3       1 <1>         1.516100 
     36 F          27.934000   21.111000   20.568000 F         1 <1>        -0.457000 
     37 F          29.560000   21.514000   19.168000 F         1 <1>        -0.462800 
     38 F          28.657000   19.527000   19.245000 F         1 <1>        -0.452500 
     39 S          19.488000   21.046000   16.814000 S.o2      1 <1>         2.432400 
     40 O          18.936000   22.306000   16.348000 O.2       1 <1>        -0.992000 
     41 O          18.975000   20.414000   18.016000 O.2       1 <1>        -0.988300 
     42 N          19.314000   19.951000   15.559000 N.pl3     1 <1>        -1.300600 
     43 H          18.827000   20.375000   14.765000 H         1 <1>         0.483000 
     44 H          18.841000   19.100000   15.874000 H         1 <1>         0.487100 
@<TRIPOS>BOND
     1    1    2 ar   
     2    2    3 1    
     3    2    4 ar   
     4    4    5 1    
     5    4    6 ar   
     6    6    7 ar   
     7    7    8 1    
     8    7    9 ar   
     9    9   10 1    
    10    9    1 ar   
    11    6   11 1    
    12   11   12 ar   
    13   12   13 1    
    14   13   14 ar   
    15   14   15 1    
    16   14   16 ar   
    17   16   17 ar   
    18   17   18 ar   
    19   18   19 1    
    20   18   20 ar   
    21   20   21 1    
    22   20   13 ar   
    23   17   22 1    
    24   22   23 1    
    25   23   24 1    
    26   23   25 1    
    27   23   26 1    
    28   16   27 1    
    29   27   28 1    
    30   27   29 1    
    31   27   30 1    
    32   12   31 ar   
    33   31   32 1    
    34   31   33 ar   
    35   33   34 ar   
    36   34   11 ar   
    37   33   35 1    
    38   35   36 1    
    39   35   37 1    
    40   35   38 1    
    41    1   39 1    
    42   39   40 2    
    43   39   41 2    
    44   39   42 1    
    45   42   43 1    
    46   42   44 1    
@<TRIPOS>SUBSTRUCTURE
     1 ****        1 TEMP              0 ****  ****    0 ROOT 
@<TRIPOS>SET
UNITY_3DHIT     STATIC     ATOMS    <user>   **** Atoms matching 3D or FLEX Search
0
