#	Name:			8-1y
#	Creating user name:	jeff
#	Creation time:		Fri Dec 13 09:53:28 2002

#	Modifying user name:	jeff
#	Modification time:	Fri Dec 13 09:53:30 2002

@<TRIPOS>MOLECULE
8-1y
   47    49     1     0     1
SMALL
USER_CHARGES
****
From 3DB ct
@<TRIPOS>ATOM
      1 C          21.249000   21.185000   16.949000 C.ar      1 <1>        -0.634100 
      2 C          21.965000   20.320000   17.775000 C.ar      1 <1>         0.067400 
      3 H          21.457000   19.557000   18.361000 H         1 <1>         0.185900 
      4 C          23.356000   20.435000   17.855000 C.ar      1 <1>        -0.210300 
      5 H          23.890000   19.744000   18.507000 H         1 <1>         0.186300 
      6 C          24.046000   21.401000   17.098000 C.ar      1 <1>         0.308200 
      7 C          23.309000   22.271000   16.282000 C.ar      1 <1>        -0.267400 
      8 H          23.773000   23.077000   15.722000 H         1 <1>         0.142500 
      9 C          21.915000   22.159000   16.201000 C.ar      1 <1>         0.097100 
     10 H          21.358000   22.845000   15.566000 H         1 <1>         0.181900 
     11 N          25.471000   21.488000   17.216000 N.pl3     1 <1>        -0.004300 
     12 C          26.413000   22.146000   16.424000 C.ar      1 <1>         0.180400 
     13 C          26.211000   22.728000   15.099000 C.ar      1 <1>        -0.176700 
     14 C          26.469000   24.085000   14.876000 C.ar      1 <1>         0.072100 
     15 H          26.800000   24.712000   15.704000 H         1 <1>         0.149800 
     16 C          26.301000   24.656000   13.601000 C.ar      1 <1>        -0.391300 
     17 C          25.890000   23.844000   12.527000 C.ar      1 <1>         0.524800 
     18 C          25.648000   22.485000   12.748000 C.ar      1 <1>        -0.429100 
     19 H          25.335000   21.818000   11.949000 H         1 <1>         0.199200 
     20 C          25.811000   21.931000   14.023000 C.ar      1 <1>        -0.039800 
     21 H          25.625000   20.867000   14.161000 H         1 <1>         0.169100 
     22 O          25.763000   24.470000   11.316000 O.3       1 <1>        -0.329600 
     23 C          25.309000   23.684000   10.216000 C.3       1 <1>        -0.065300 
     24 H          25.239000   24.344000    9.346000 H         1 <1>         0.119000 
     25 H          24.311000   23.277000   10.406000 H         1 <1>         0.073800 
     26 H          26.026000   22.892000    9.976000 H         1 <1>         0.080000 
     27 C          26.593000   26.129000   13.416000 C.3       1 <1>         0.172200 
     28 H          26.443000   26.657000   14.366000 H         1 <1>         0.007400 
     29 H          25.872000   26.571000   12.718000 H         1 <1>        -0.002100 
     30 C          28.013000   26.371000   12.925000 C.3       1 <1>        -0.166800 
     31 H          28.195000   27.445000   12.812000 H         1 <1>         0.040500 
     32 H          28.190000   25.895000   11.956000 H         1 <1>         0.045300 
     33 H          28.749000   25.975000   13.633000 H         1 <1>         0.043400 
     34 C          27.608000   22.065000   17.117000 C.ar      1 <1>        -0.405800 
     35 H          28.559000   22.482000   16.809000 H         1 <1>         0.266100 
     36 C          27.361000   21.262000   18.249000 C.ar      1 <1>        -0.166400 
     37 N          26.076000   20.863000   18.276000 N.ar      1 <1>        -0.287500 
     38 C          28.368000   20.840000   19.284000 C.3       1 <1>         1.498600 
     39 F          27.904000   20.985000   20.561000 F         1 <1>        -0.453300 
     40 F          29.528000   21.560000   19.221000 F         1 <1>        -0.456800 
     41 F          28.727000   19.528000   19.154000 F         1 <1>        -0.446600 
     42 S          19.488000   21.040000   16.816000 S.o2      1 <1>         2.429400 
     43 O          18.932000   22.298000   16.349000 O.2       1 <1>        -0.991400 
     44 O          18.976000   20.408000   18.018000 O.2       1 <1>        -0.984200 
     45 N          19.320000   19.942000   15.562000 N.pl3     1 <1>        -1.302700 
     46 H          18.835000   20.363000   14.766000 H         1 <1>         0.483600 
     47 H          18.848000   19.091000   15.878000 H         1 <1>         0.487300 
@<TRIPOS>BOND
     1    1    2 ar   
     2    2    3 1    
     3    2    4 ar   
     4    4    5 1    
     5    4    6 ar   
     6    6    7 ar   
     7    7    8 1    
     8    7    9 ar   
     9    9   10 1    
    10    9    1 ar   
    11    6   11 1    
    12   11   12 ar   
    13   12   13 1    
    14   13   14 ar   
    15   14   15 1    
    16   14   16 ar   
    17   16   17 ar   
    18   17   18 ar   
    19   18   19 1    
    20   18   20 ar   
    21   20   21 1    
    22   20   13 ar   
    23   17   22 1    
    24   22   23 1    
    25   23   24 1    
    26   23   25 1    
    27   23   26 1    
    28   16   27 1    
    29   27   28 1    
    30   27   29 1    
    31   27   30 1    
    32   30   31 1    
    33   30   32 1    
    34   30   33 1    
    35   12   34 ar   
    36   34   35 1    
    37   34   36 ar   
    38   36   37 ar   
    39   37   11 ar   
    40   36   38 1    
    41   38   39 1    
    42   38   40 1    
    43   38   41 1    
    44    1   42 1    
    45   42   43 2    
    46   42   44 2    
    47   42   45 1    
    48   45   46 1    
    49   45   47 1    
@<TRIPOS>SUBSTRUCTURE
     1 ****        1 TEMP              0 ****  ****    0 ROOT 
@<TRIPOS>SET
UNITY_3DHIT     STATIC     ATOMS    <user>   **** Atoms matching 3D or FLEX Search
0
