#	Name:			8-1z
#	Creating user name:	jeff
#	Creation time:		Fri Dec 13 09:53:30 2002

#	Modifying user name:	jeff
#	Modification time:	Fri Dec 13 09:53:33 2002

@<TRIPOS>MOLECULE
8-1z
   45    47     1     0     1
SMALL
USER_CHARGES
****
From 3DB ct
@<TRIPOS>ATOM
      1 C          21.251000   21.188000   16.945000 C.ar      1 <1>        -0.621800 
      2 C          21.966000   20.323000   17.773000 C.ar      1 <1>         0.061000 
      3 H          21.456000   19.561000   18.359000 H         1 <1>         0.187900 
      4 C          23.358000   20.439000   17.857000 C.ar      1 <1>        -0.215500 
      5 H          23.891000   19.748000   18.510000 H         1 <1>         0.188000 
      6 C          24.049000   21.405000   17.101000 C.ar      1 <1>         0.339300 
      7 C          23.312000   22.276000   16.285000 C.ar      1 <1>        -0.288000 
      8 H          23.776000   23.083000   15.728000 H         1 <1>         0.166600 
      9 C          21.919000   22.162000   16.199000 C.ar      1 <1>         0.085200 
     10 H          21.364000   22.847000   15.561000 H         1 <1>         0.184800 
     11 N          25.474000   21.490000   17.218000 N.pl3     1 <1>        -0.056700 
     12 C          26.416000   22.146000   16.423000 C.ar      1 <1>         0.298800 
     13 C          26.209000   22.731000   15.100000 C.ar      1 <1>        -0.266000 
     14 C          26.465000   24.092000   14.884000 C.ar      1 <1>        -0.142800 
     15 H          26.800000   24.727000   15.702000 H         1 <1>         0.166600 
     16 C          26.289000   24.643000   13.614000 C.ar      1 <1>         0.154500 
     17 C          25.817000   23.852000   12.563000 C.ar      1 <1>         0.376000 
     18 C          25.601000   22.489000   12.758000 C.ar      1 <1>        -0.395100 
     19 H          25.271000   21.861000   11.934000 H         1 <1>         0.223200 
     20 C          25.799000   21.930000   14.023000 C.ar      1 <1>         0.006700 
     21 H          25.624000   20.864000   14.161000 H         1 <1>         0.154600 
     22 O          25.614000   24.366000   11.309000 O.3       1 <1>        -0.396800 
     23 C          25.885000   25.772000   11.308000 C.3       1 <1>         0.031600 
     24 H          25.618000   26.161000   10.321000 H         1 <1>         0.089900 
     25 H          26.949000   25.970000   11.473000 H         1 <1>         0.061400 
     26 H          25.278000   26.295000   12.055000 H         1 <1>         0.061900 
     27 O          26.528000   25.983000   13.453000 O.3       1 <1>        -0.333600 
     28 C          27.003000   26.547000   14.681000 C.3       1 <1>        -0.060600 
     29 H          27.097000   27.628000   14.536000 H         1 <1>         0.113200 
     30 H          27.990000   26.154000   14.944000 H         1 <1>         0.085600 
     31 H          26.292000   26.375000   15.497000 H         1 <1>         0.082400 
     32 C          27.613000   22.062000   17.112000 C.ar      1 <1>        -0.434700 
     33 H          28.564000   22.477000   16.803000 H         1 <1>         0.276300 
     34 C          27.366000   21.261000   18.247000 C.ar      1 <1>        -0.179000 
     35 N          26.080000   20.866000   18.278000 N.ar      1 <1>        -0.277400 
     36 C          28.375000   20.842000   19.283000 C.3       1 <1>         1.512400 
     37 F          27.928000   21.036000   20.559000 F         1 <1>        -0.454800 
     38 F          29.552000   21.529000   19.185000 F         1 <1>        -0.460200 
     39 F          28.698000   19.518000   19.187000 F         1 <1>        -0.448800 
     40 S          19.491000   21.040000   16.804000 S.o2      1 <1>         2.432700 
     41 O          18.935000   22.296000   16.334000 O.2       1 <1>        -0.992400 
     42 O          18.973000   20.407000   18.004000 O.2       1 <1>        -0.986200 
     43 N          19.331000   19.939000   15.551000 N.pl3     1 <1>        -1.302700 
     44 H          18.847000   20.358000   14.752000 H         1 <1>         0.484700 
     45 H          18.860000   19.087000   15.867000 H         1 <1>         0.487600 
@<TRIPOS>BOND
     1    1    2 ar   
     2    2    3 1    
     3    2    4 ar   
     4    4    5 1    
     5    4    6 ar   
     6    6    7 ar   
     7    7    8 1    
     8    7    9 ar   
     9    9   10 1    
    10    9    1 ar   
    11    6   11 1    
    12   11   12 ar   
    13   12   13 1    
    14   13   14 ar   
    15   14   15 1    
    16   14   16 ar   
    17   16   17 ar   
    18   17   18 ar   
    19   18   19 1    
    20   18   20 ar   
    21   20   21 1    
    22   20   13 ar   
    23   17   22 1    
    24   22   23 1    
    25   23   24 1    
    26   23   25 1    
    27   23   26 1    
    28   16   27 1    
    29   27   28 1    
    30   28   29 1    
    31   28   30 1    
    32   28   31 1    
    33   12   32 ar   
    34   32   33 1    
    35   32   34 ar   
    36   34   35 ar   
    37   35   11 ar   
    38   34   36 1    
    39   36   37 1    
    40   36   38 1    
    41   36   39 1    
    42    1   40 1    
    43   40   41 2    
    44   40   42 2    
    45   40   43 1    
    46   43   44 1    
    47   43   45 1    
@<TRIPOS>SUBSTRUCTURE
     1 ****        1 TEMP              0 ****  ****    0 ROOT 
@<TRIPOS>SET
UNITY_3DHIT     STATIC     ATOMS    <user>   **** Atoms matching 3D or FLEX Search
0
