#	Name:			8-20f
#	Creating user name:	jeff
#	Creation time:		Fri Dec 13 09:54:54 2002

#	Modifying user name:	jeff
#	Modification time:	Fri Dec 13 09:54:56 2002

@<TRIPOS>MOLECULE
8-20f
   40    42     1     0     1
SMALL
USER_CHARGES
****
From 3DB ct
@<TRIPOS>ATOM
      1 C          21.251000   21.181000   16.940000 C.ar      1 <1>        -0.582100 
      2 C          21.969000   20.322000   17.770000 C.ar      1 <1>         0.019100 
      3 H          21.465000   19.557000   18.356000 H         1 <1>         0.190600 
      4 C          23.361000   20.446000   17.853000 C.ar      1 <1>        -0.154800 
      5 H          23.894000   19.757000   18.508000 H         1 <1>         0.193700 
      6 C          24.050000   21.417000   17.099000 C.ar      1 <1>         0.313900 
      7 C          23.309000   22.279000   16.280000 C.ar      1 <1>        -0.379400 
      8 H          23.762000   23.086000   15.717000 H         1 <1>         0.209000 
      9 C          21.915000   22.157000   16.195000 C.ar      1 <1>         0.115700 
     10 H          21.357000   22.838000   15.555000 H         1 <1>         0.172300 
     11 N          25.477000   21.504000   17.223000 N.pl3     1 <1>        -0.033000 
     12 C          26.428000   22.136000   16.418000 C.ar      1 <1>         0.513600 
     13 C          26.210000   22.731000   15.101000 C.ar      1 <1>         0.037100 
     14 C          26.466000   24.093000   14.887000 C.ar      1 <1>        -0.363100 
     15 H          26.806000   24.728000   15.703000 H         1 <1>         0.197600 
     16 C          26.280000   24.655000   13.621000 C.ar      1 <1>         0.343800 
     17 H          26.476000   25.714000   13.470000 H         1 <1>         0.060800 
     18 C          25.847000   23.856000   12.564000 C.ar      1 <1>        -0.645700 
     19 C          25.602000   22.499000   12.762000 C.ar      1 <1>         0.293200 
     20 H          25.269000   21.870000   11.939000 H         1 <1>         0.069600 
     21 C          25.787000   21.935000   14.027000 C.ar      1 <1>        -0.302400 
     22 H          25.599000   20.871000   14.164000 H         1 <1>         0.174800 
     23 Cl         25.619000   24.549000   11.005000 Cl        1 <1>         0.128400 
     24 C          27.629000   22.012000   17.094000 C.ar      1 <1>        -0.935700 
     25 C          27.366000   21.227000   18.233000 C.ar      1 <1>         0.422100 
     26 N          26.066000   20.900000   18.302000 N.ar      1 <1>        -0.456700 
     27 C          28.312000   20.794000   19.265000 C.2       1 <1>         0.813000 
     28 O          27.968000   20.117000   20.235000 O.2       1 <1>        -0.588100 
     29 O          29.621000   21.191000   19.144000 O.3       1 <1>        -0.480700 
     30 C          30.056000   22.426000   19.740000 C.3       1 <1>        -0.039400 
     31 H          29.923000   23.248000   19.034000 H         1 <1>         0.115500 
     32 H          31.092000   22.367000   20.088000 H         1 <1>         0.093200 
     33 H          29.419000   22.614000   20.609000 H         1 <1>         0.101100 
     34 Cl         29.147000   22.640000   16.642000 Cl        1 <1>         0.270700 
     35 S          19.492000   21.029000   16.798000 S.o2      1 <1>         2.402100 
     36 O          18.932000   22.284000   16.326000 O.2       1 <1>        -0.985200 
     37 O          18.977000   20.396000   17.999000 O.2       1 <1>        -0.976200 
     38 N          19.332000   19.929000   15.545000 N.pl3     1 <1>        -1.311100 
     39 H          18.846000   20.347000   14.747000 H         1 <1>         0.489600 
     40 H          18.865000   19.075000   15.861000 H         1 <1>         0.493000 
@<TRIPOS>BOND
     1    1    2 ar   
     2    2    3 1    
     3    2    4 ar   
     4    4    5 1    
     5    4    6 ar   
     6    6    7 ar   
     7    7    8 1    
     8    7    9 ar   
     9    9   10 1    
    10    9    1 ar   
    11    6   11 1    
    12   11   12 ar   
    13   12   13 1    
    14   13   14 ar   
    15   14   15 1    
    16   14   16 ar   
    17   16   17 1    
    18   16   18 ar   
    19   18   19 ar   
    20   19   20 1    
    21   19   21 ar   
    22   21   22 1    
    23   21   13 ar   
    24   18   23 1    
    25   12   24 ar   
    26   24   25 ar   
    27   25   26 ar   
    28   26   11 ar   
    29   25   27 1    
    30   27   28 2    
    31   27   29 1    
    32   29   30 1    
    33   30   31 1    
    34   30   32 1    
    35   30   33 1    
    36   24   34 1    
    37    1   35 1    
    38   35   36 2    
    39   35   37 2    
    40   35   38 1    
    41   38   39 1    
    42   38   40 1    
@<TRIPOS>SUBSTRUCTURE
     1 ****        1 TEMP              0 ****  ****    0 ROOT 
@<TRIPOS>SET
UNITY_3DHIT     STATIC     ATOMS    <user>   **** Atoms matching 3D or FLEX Search
0
