#	Name:			8-20e
#	Creating user name:	jeff
#	Creation time:		Sun Dec 22 15:52:47 2002

#	Modifying user name:	jeff
#	Modification time:	Sun Dec 22 15:52:49 2002

@<TRIPOS>MOLECULE
8-20e
   36    38     1     0     1
SMALL
USER_CHARGES
****
From 3DB ct
@<TRIPOS>ATOM
      1 C          21.253000   21.185000   16.938000 C.ar      1 <1>        -0.673200 
      2 C          21.970000   20.324000   17.767000 C.ar      1 <1>         0.032700 
      3 H          21.465000   19.559000   18.353000 H         1 <1>         0.180200 
      4 C          23.362000   20.446000   17.852000 C.ar      1 <1>        -0.236100 
      5 H          23.895000   19.758000   18.507000 H         1 <1>         0.213100 
      6 C          24.052000   21.416000   17.098000 C.ar      1 <1>         0.556900 
      7 C          23.312000   22.280000   16.279000 C.ar      1 <1>        -0.488100 
      8 H          23.768000   23.088000   15.718000 H         1 <1>         0.220700 
      9 C          21.919000   22.160000   16.192000 C.ar      1 <1>         0.159900 
     10 H          21.362000   22.841000   15.552000 H         1 <1>         0.149300 
     11 N          25.480000   21.503000   17.223000 N.pl3     1 <1>        -0.263500 
     12 C          26.428000   22.141000   16.423000 C.ar      1 <1>         0.416600 
     13 C          26.209000   22.731000   15.103000 C.ar      1 <1>         0.080800 
     14 C          26.462000   24.092000   14.884000 C.ar      1 <1>        -0.344500 
     15 H          26.805000   24.730000   15.697000 H         1 <1>         0.197200 
     16 C          26.272000   24.651000   13.617000 C.ar      1 <1>         0.297200 
     17 H          26.468000   25.709000   13.463000 H         1 <1>         0.058100 
     18 C          25.836000   23.849000   12.564000 C.ar      1 <1>        -0.641700 
     19 C          25.592000   22.492000   12.766000 C.ar      1 <1>         0.277800 
     20 H          25.257000   21.861000   11.946000 H         1 <1>         0.057700 
     21 C          25.782000   21.932000   14.033000 C.ar      1 <1>        -0.326000 
     22 H          25.596000   20.868000   14.174000 H         1 <1>         0.187100 
     23 Cl         25.602000   24.537000   11.004000 Cl        1 <1>         0.078800 
     24 C          27.629000   22.018000   17.101000 C.ar      1 <1>        -0.833400 
     25 C          27.366000   21.243000   18.253000 C.ar      1 <1>         0.578500 
     26 N          26.068000   20.890000   18.294000 N.ar      1 <1>        -0.459400 
     27 C          28.318000   20.817000   19.286000 C.2       1 <1>         0.639800 
     28 O          28.057000   20.122000   20.263000 O.2       1 <1>        -0.903600 
     29 O          29.591000   21.258000   19.095000 O.3       1 <1>        -0.920100 
     30 Cl         29.145000   22.623000   16.609000 Cl        1 <1>         0.227800 
     31 S          19.494000   21.032000   16.796000 S.o2      1 <1>         2.438200 
     32 O          18.935000   22.287000   16.324000 O.2       1 <1>        -1.015600 
     33 O          18.978000   20.400000   17.997000 O.2       1 <1>        -1.004800 
     34 N          19.335000   19.931000   15.543000 N.pl3     1 <1>        -1.323900 
     35 H          18.852000   20.350000   14.744000 H         1 <1>         0.480100 
     36 H          18.866000   19.079000   15.858000 H         1 <1>         0.483600 
@<TRIPOS>BOND
     1    1    2 ar   
     2    2    3 1    
     3    2    4 ar   
     4    4    5 1    
     5    4    6 ar   
     6    6    7 ar   
     7    7    8 1    
     8    7    9 ar   
     9    9   10 1    
    10    9    1 ar   
    11    6   11 1    
    12   11   12 ar   
    13   12   13 1    
    14   13   14 ar   
    15   14   15 1    
    16   14   16 ar   
    17   16   17 1    
    18   16   18 ar   
    19   18   19 ar   
    20   19   20 1    
    21   19   21 ar   
    22   21   22 1    
    23   21   13 ar   
    24   18   23 1    
    25   12   24 ar   
    26   24   25 ar   
    27   25   26 ar   
    28   26   11 ar   
    29   25   27 1    
    30   27   28 2    
    31   27   29 1    
    32   24   30 1    
    33    1   31 1    
    34   31   32 2    
    35   31   33 2    
    36   31   34 1    
    37   34   35 1    
    38   34   36 1    
@<TRIPOS>SUBSTRUCTURE
     1 ****        1 TEMP              0 ****  ****    0 ROOT 
@<TRIPOS>SET
UNITY_3DHIT     STATIC     ATOMS    <user>   **** Atoms matching 3D or FLEX Search
0
