#	Name:			8-20b
#	Creating user name:	jeff
#	Creation time:		Fri Dec 13 09:54:45 2002

#	Modifying user name:	jeff
#	Modification time:	Fri Dec 13 09:54:47 2002

@<TRIPOS>MOLECULE
8-20b
   37    39     1     0     1
SMALL
USER_CHARGES
****
From 3DB ct
@<TRIPOS>ATOM
      1 C          21.251000   21.183000   16.939000 C.ar      1 <1>        -0.637000 
      2 C          21.969000   20.322000   17.767000 C.ar      1 <1>         0.043100 
      3 H          21.463000   19.558000   18.354000 H         1 <1>         0.187500 
      4 C          23.361000   20.444000   17.851000 C.ar      1 <1>        -0.228700 
      5 H          23.894000   19.755000   18.505000 H         1 <1>         0.198300 
      6 C          24.050000   21.414000   17.097000 C.ar      1 <1>         0.495600 
      7 C          23.310000   22.278000   16.278000 C.ar      1 <1>        -0.444700 
      8 H          23.766000   23.084000   15.715000 H         1 <1>         0.223800 
      9 C          21.916000   22.158000   16.193000 C.ar      1 <1>         0.145600 
     10 H          21.359000   22.840000   15.553000 H         1 <1>         0.168900 
     11 N          25.477000   21.502000   17.221000 N.pl3     1 <1>        -0.289000 
     12 C          26.429000   22.140000   16.420000 C.ar      1 <1>         0.687200 
     13 C          26.212000   22.731000   15.101000 C.ar      1 <1>        -0.197000 
     14 C          26.468000   24.092000   14.883000 C.ar      1 <1>        -0.155800 
     15 H          26.811000   24.728000   15.697000 H         1 <1>         0.162400 
     16 C          26.276000   24.651000   13.618000 C.ar      1 <1>        -0.086800 
     17 H          26.470000   25.710000   13.457000 H         1 <1>         0.142600 
     18 C          25.837000   23.855000   12.561000 C.ar      1 <1>        -0.134500 
     19 H          25.688000   24.293000   11.576000 H         1 <1>         0.150500 
     20 C          25.594000   22.497000   12.766000 C.ar      1 <1>        -0.127400 
     21 H          25.257000   21.875000   11.939000 H         1 <1>         0.149100 
     22 C          25.785000   21.935000   14.029000 C.ar      1 <1>        -0.106000 
     23 H          25.597000   20.871000   14.169000 H         1 <1>         0.143500 
     24 C          27.628000   22.018000   17.100000 C.ar      1 <1>        -1.051400 
     25 C          27.355000   21.249000   18.245000 C.ar      1 <1>         0.728500 
     26 N          26.069000   20.892000   18.300000 N.ar      1 <1>        -0.471200 
     27 C          28.302000   20.805000   19.298000 C.3       1 <1>        -0.438000 
     28 H          28.795000   21.667000   19.758000 H         1 <1>         0.114700 
     29 H          29.070000   20.153000   18.870000 H         1 <1>         0.115600 
     30 H          27.790000   20.249000   20.090000 H         1 <1>         0.143700 
     31 Cl         29.160000   22.604000   16.644000 Cl        1 <1>         0.253500 
     32 S          19.492000   21.032000   16.800000 S.o2      1 <1>         2.432800 
     33 O          18.933000   22.287000   16.329000 O.2       1 <1>        -0.995700 
     34 O          18.977000   20.400000   18.001000 O.2       1 <1>        -0.988200 
     35 N          19.331000   19.931000   15.547000 N.pl3     1 <1>        -1.307200 
     36 H          18.846000   20.349000   14.749000 H         1 <1>         0.483400 
     37 H          18.863000   19.078000   15.863000 H         1 <1>         0.488500 
@<TRIPOS>BOND
     1    1    2 ar   
     2    2    3 1    
     3    2    4 ar   
     4    4    5 1    
     5    4    6 ar   
     6    6    7 ar   
     7    7    8 1    
     8    7    9 ar   
     9    9   10 1    
    10    9    1 ar   
    11    6   11 1    
    12   11   12 ar   
    13   12   13 1    
    14   13   14 ar   
    15   14   15 1    
    16   14   16 ar   
    17   16   17 1    
    18   16   18 ar   
    19   18   19 1    
    20   18   20 ar   
    21   20   21 1    
    22   20   22 ar   
    23   22   23 1    
    24   22   13 ar   
    25   12   24 ar   
    26   24   25 ar   
    27   25   26 ar   
    28   26   11 ar   
    29   25   27 1    
    30   27   28 1    
    31   27   29 1    
    32   27   30 1    
    33   24   31 1    
    34    1   32 1    
    35   32   33 2    
    36   32   34 2    
    37   32   35 1    
    38   35   36 1    
    39   35   37 1    
@<TRIPOS>SUBSTRUCTURE
     1 ****        1 TEMP              0 ****  ****    0 ROOT 
@<TRIPOS>SET
UNITY_3DHIT     STATIC     ATOMS    <user>   **** Atoms matching 3D or FLEX Search
0
