#	Name:			8-20d
#	Creating user name:	jeff
#	Creation time:		Fri Dec 13 09:54:50 2002

#	Modifying user name:	jeff
#	Modification time:	Fri Dec 13 09:54:51 2002

@<TRIPOS>MOLECULE
8-20d
   35    37     1     0     1
SMALL
USER_CHARGES
****
From 3DB ct
@<TRIPOS>ATOM
      1 C          21.253000   21.194000   16.929000 C.ar      1 <1>        -0.638800 
      2 C          21.966000   20.329000   17.760000 C.ar      1 <1>         0.068700 
      3 H          21.451000   19.569000   18.344000 H         1 <1>         0.188800 
      4 C          23.358000   20.445000   17.848000 C.ar      1 <1>        -0.270900 
      5 H          23.887000   19.755000   18.504000 H         1 <1>         0.212400 
      6 C          24.051000   21.413000   17.094000 C.ar      1 <1>         0.559600 
      7 C          23.316000   22.279000   16.274000 C.ar      1 <1>        -0.490000 
      8 H          23.777000   23.085000   15.715000 H         1 <1>         0.242800 
      9 C          21.922000   22.166000   16.186000 C.ar      1 <1>         0.164100 
     10 H          21.372000   22.853000   15.544000 H         1 <1>         0.167400 
     11 N          25.477000   21.498000   17.222000 N.pl3     1 <1>        -0.365400 
     12 C          26.428000   22.146000   16.424000 C.ar      1 <1>         0.675300 
     13 C          26.209000   22.733000   15.103000 C.ar      1 <1>         0.039600 
     14 C          26.462000   24.094000   14.881000 C.ar      1 <1>        -0.397800 
     15 H          26.800000   24.735000   15.694000 H         1 <1>         0.211700 
     16 C          26.275000   24.649000   13.612000 C.ar      1 <1>         0.352700 
     17 H          26.470000   25.707000   13.456000 H         1 <1>         0.063600 
     18 C          25.843000   23.843000   12.560000 C.ar      1 <1>        -0.651400 
     19 C          25.600000   22.487000   12.765000 C.ar      1 <1>         0.307500 
     20 H          25.268000   21.854000   11.945000 H         1 <1>         0.068600 
     21 C          25.787000   21.931000   14.033000 C.ar      1 <1>        -0.322500 
     22 H          25.601000   20.867000   14.176000 H         1 <1>         0.183000 
     23 Cl         25.614000   24.528000   10.998000 Cl        1 <1>         0.133100 
     24 C          27.628000   22.029000   17.106000 C.ar      1 <1>        -1.121700 
     25 C          27.350000   21.250000   18.235000 C.ar      1 <1>         0.923000 
     26 N          26.067000   20.878000   18.294000 N.ar      1 <1>        -0.401400 
     27 C          28.258000   20.811000   19.256000 C.1       1 <1>        -0.176700 
     28 N          28.991000   20.452000   20.087000 N.1       1 <1>        -0.153900 
     29 Cl         29.155000   22.629000   16.651000 Cl        1 <1>         0.300000 
     30 S          19.493000   21.026000   16.811000 S.o2      1 <1>         2.422700 
     31 O          18.931000   22.287000   16.358000 O.2       1 <1>        -0.985900 
     32 O          18.986000   20.379000   18.008000 O.2       1 <1>        -0.980300 
     33 N          19.326000   19.925000   15.561000 N.pl3     1 <1>        -1.304100 
     34 H          18.826000   20.337000   14.769000 H         1 <1>         0.485900 
     35 H          18.871000   19.067000   15.883000 H         1 <1>         0.490300 
@<TRIPOS>BOND
     1    1    2 ar   
     2    2    3 1    
     3    2    4 ar   
     4    4    5 1    
     5    4    6 ar   
     6    6    7 ar   
     7    7    8 1    
     8    7    9 ar   
     9    9   10 1    
    10    9    1 ar   
    11    6   11 1    
    12   11   12 ar   
    13   12   13 1    
    14   13   14 ar   
    15   14   15 1    
    16   14   16 ar   
    17   16   17 1    
    18   16   18 ar   
    19   18   19 ar   
    20   19   20 1    
    21   19   21 ar   
    22   21   22 1    
    23   21   13 ar   
    24   18   23 1    
    25   12   24 ar   
    26   24   25 ar   
    27   25   26 ar   
    28   26   11 ar   
    29   25   27 1    
    30   27   28 3    
    31   24   29 1    
    32    1   30 1    
    33   30   31 2    
    34   30   32 2    
    35   30   33 1    
    36   33   34 1    
    37   33   35 1    
@<TRIPOS>SUBSTRUCTURE
     1 ****        1 TEMP              0 ****  ****    0 ROOT 
@<TRIPOS>SET
UNITY_3DHIT     STATIC     ATOMS    <user>   **** Atoms matching 3D or FLEX Search
0
