#	Name:			8-20g
#	Creating user name:	jeff
#	Creation time:		Fri Dec 13 09:54:56 2002

#	Modifying user name:	jeff
#	Modification time:	Fri Dec 13 09:54:58 2002

@<TRIPOS>MOLECULE
8-20g
   38    40     1     0     1
SMALL
USER_CHARGES
****
From 3DB ct
@<TRIPOS>ATOM
      1 C          21.254000   21.195000   16.931000 C.ar      1 <1>        -0.593400 
      2 C          21.969000   20.332000   17.762000 C.ar      1 <1>         0.018200 
      3 H          21.456000   19.571000   18.346000 H         1 <1>         0.193300 
      4 C          23.360000   20.451000   17.850000 C.ar      1 <1>        -0.169500 
      5 H          23.890000   19.761000   18.506000 H         1 <1>         0.201500 
      6 C          24.053000   21.418000   17.096000 C.ar      1 <1>         0.376900 
      7 C          23.316000   22.284000   16.276000 C.ar      1 <1>        -0.428900 
      8 H          23.775000   23.090000   15.715000 H         1 <1>         0.234900 
      9 C          21.922000   22.168000   16.187000 C.ar      1 <1>         0.133800 
     10 H          21.372000   22.853000   15.545000 H         1 <1>         0.166500 
     11 N          25.480000   21.503000   17.222000 N.pl3     1 <1>        -0.076300 
     12 C          26.428000   22.142000   16.425000 C.ar      1 <1>         0.530200 
     13 C          26.209000   22.730000   15.104000 C.ar      1 <1>        -0.008300 
     14 C          26.461000   24.091000   14.884000 C.ar      1 <1>        -0.385700 
     15 H          26.803000   24.730000   15.697000 H         1 <1>         0.206700 
     16 C          26.272000   24.649000   13.617000 C.ar      1 <1>         0.357800 
     17 H          26.467000   25.708000   13.462000 H         1 <1>         0.057900 
     18 C          25.837000   23.846000   12.564000 C.ar      1 <1>        -0.635700 
     19 C          25.593000   22.489000   12.767000 C.ar      1 <1>         0.287700 
     20 H          25.258000   21.858000   11.948000 H         1 <1>         0.071300 
     21 C          25.783000   21.931000   14.034000 C.ar      1 <1>        -0.292100 
     22 H          25.596000   20.867000   14.176000 H         1 <1>         0.179900 
     23 Cl         25.603000   24.533000   11.004000 Cl        1 <1>         0.127100 
     24 C          27.628000   22.017000   17.105000 C.ar      1 <1>        -0.956400 
     25 C          27.364000   21.240000   18.259000 C.ar      1 <1>         0.542400 
     26 N          26.066000   20.886000   18.289000 N.ar      1 <1>        -0.481200 
     27 C          28.267000   20.782000   19.334000 C.2       1 <1>         0.737800 
     28 O          27.896000   20.070000   20.272000 O.2       1 <1>        -0.592700 
     29 N          29.571000   21.180000   19.274000 N.am      1 <1>        -1.169900 
     30 H          30.224000   20.891000   19.992000 H         1 <1>         0.516900 
     31 H          29.937000   21.764000   18.531000 H         1 <1>         0.472700 
     32 Cl         29.139000   22.631000   16.597000 Cl        1 <1>         0.258400 
     33 S          19.495000   21.021000   16.805000 S.o2      1 <1>         2.413400 
     34 O          18.930000   22.277000   16.344000 O.2       1 <1>        -0.987200 
     35 O          18.985000   20.377000   18.002000 O.2       1 <1>        -0.978700 
     36 N          19.339000   19.915000   15.557000 N.pl3     1 <1>        -1.310000 
     37 H          18.840000   20.323000   14.762000 H         1 <1>         0.487500 
     38 H          18.885000   19.056000   15.880000 H         1 <1>         0.493000 
@<TRIPOS>BOND
     1    1    2 ar   
     2    2    3 1    
     3    2    4 ar   
     4    4    5 1    
     5    4    6 ar   
     6    6    7 ar   
     7    7    8 1    
     8    7    9 ar   
     9    9   10 1    
    10    9    1 ar   
    11    6   11 1    
    12   11   12 ar   
    13   12   13 1    
    14   13   14 ar   
    15   14   15 1    
    16   14   16 ar   
    17   16   17 1    
    18   16   18 ar   
    19   18   19 ar   
    20   19   20 1    
    21   19   21 ar   
    22   21   22 1    
    23   21   13 ar   
    24   18   23 1    
    25   12   24 ar   
    26   24   25 ar   
    27   25   26 ar   
    28   26   11 ar   
    29   25   27 1    
    30   27   28 2    
    31   27   29 am   
    32   29   30 1    
    33   29   31 1    
    34   24   32 1    
    35    1   33 1    
    36   33   34 2    
    37   33   35 2    
    38   33   36 1    
    39   36   37 1    
    40   36   38 1    
@<TRIPOS>SUBSTRUCTURE
     1 ****        1 TEMP              0 ****  ****    0 ROOT 
@<TRIPOS>SET
UNITY_3DHIT     STATIC     ATOMS    <user>   **** Atoms matching 3D or FLEX Search
0
