#	Name:			8-20c
#	Creating user name:	jeff
#	Creation time:		Fri Dec 13 09:54:48 2002

#	Modifying user name:	jeff
#	Modification time:	Fri Dec 13 09:54:50 2002

@<TRIPOS>MOLECULE
8-20c
   38    40     1     0     1
SMALL
USER_CHARGES
****
From 3DB ct
@<TRIPOS>ATOM
      1 C          21.252000   21.184000   16.939000 C.ar      1 <1>        -0.618700 
      2 C          21.969000   20.324000   17.768000 C.ar      1 <1>         0.053900 
      3 H          21.463000   19.559000   18.354000 H         1 <1>         0.184700 
      4 C          23.361000   20.446000   17.853000 C.ar      1 <1>        -0.236200 
      5 H          23.894000   19.758000   18.508000 H         1 <1>         0.200400 
      6 C          24.051000   21.416000   17.099000 C.ar      1 <1>         0.441700 
      7 C          23.311000   22.279000   16.280000 C.ar      1 <1>        -0.428500 
      8 H          23.767000   23.087000   15.718000 H         1 <1>         0.227200 
      9 C          21.918000   22.160000   16.193000 C.ar      1 <1>         0.135400 
     10 H          21.361000   22.841000   15.553000 H         1 <1>         0.168900 
     11 N          25.478000   21.503000   17.223000 N.pl3     1 <1>        -0.126700 
     12 C          26.428000   22.142000   16.421000 C.ar      1 <1>         0.455000 
     13 C          26.209000   22.732000   15.102000 C.ar      1 <1>         0.014300 
     14 C          26.463000   24.093000   14.884000 C.ar      1 <1>        -0.324300 
     15 H          26.805000   24.730000   15.698000 H         1 <1>         0.200100 
     16 C          26.275000   24.652000   13.617000 C.ar      1 <1>         0.299500 
     17 H          26.471000   25.711000   13.464000 H         1 <1>         0.073500 
     18 C          25.840000   23.851000   12.563000 C.ar      1 <1>        -0.642100 
     19 C          25.596000   22.494000   12.764000 C.ar      1 <1>         0.295100 
     20 H          25.261000   21.864000   11.944000 H         1 <1>         0.067700 
     21 C          25.784000   21.933000   14.031000 C.ar      1 <1>        -0.295000 
     22 H          25.597000   20.870000   14.171000 H         1 <1>         0.172600 
     23 Cl         25.609000   24.541000   11.004000 Cl        1 <1>         0.128800 
     24 C          27.630000   22.014000   17.096000 C.ar      1 <1>        -0.882200 
     25 C          27.360000   21.243000   18.242000 C.ar      1 <1>         0.593400 
     26 N          26.069000   20.893000   18.300000 N.ar      1 <1>        -0.489900 
     27 C          28.318000   20.790000   19.297000 C.3       1 <1>         0.154900 
     28 H          29.318000   20.656000   18.868000 H         1 <1>        -0.006000 
     29 H          28.005000   19.832000   19.723000 H         1 <1>         0.048900 
     30 O          28.419000   21.744000   20.362000 O.3       1 <1>        -0.675100 
     31 H          29.088000   21.367000   20.970000 H         1 <1>         0.443300 
     32 Cl         29.157000   22.600000   16.624000 Cl        1 <1>         0.253500 
     33 S          19.493000   21.030000   16.795000 S.o2      1 <1>         2.411900 
     34 O          18.933000   22.285000   16.323000 O.2       1 <1>        -0.986200 
     35 O          18.976000   20.398000   17.996000 O.2       1 <1>        -0.981700 
     36 N          19.337000   19.928000   15.543000 N.pl3     1 <1>        -1.308800 
     37 H          18.851000   20.345000   14.745000 H         1 <1>         0.486900 
     38 H          18.870000   19.074000   15.859000 H         1 <1>         0.490100 
@<TRIPOS>BOND
     1    1    2 ar   
     2    2    3 1    
     3    2    4 ar   
     4    4    5 1    
     5    4    6 ar   
     6    6    7 ar   
     7    7    8 1    
     8    7    9 ar   
     9    9   10 1    
    10    9    1 ar   
    11    6   11 1    
    12   11   12 ar   
    13   12   13 1    
    14   13   14 ar   
    15   14   15 1    
    16   14   16 ar   
    17   16   17 1    
    18   16   18 ar   
    19   18   19 ar   
    20   19   20 1    
    21   19   21 ar   
    22   21   22 1    
    23   21   13 ar   
    24   18   23 1    
    25   12   24 ar   
    26   24   25 ar   
    27   25   26 ar   
    28   26   11 ar   
    29   25   27 1    
    30   27   28 1    
    31   27   29 1    
    32   27   30 1    
    33   30   31 1    
    34   24   32 1    
    35    1   33 1    
    36   33   34 2    
    37   33   35 2    
    38   33   36 1    
    39   36   37 1    
    40   36   38 1    
@<TRIPOS>SUBSTRUCTURE
     1 ****        1 TEMP              0 ****  ****    0 ROOT 
@<TRIPOS>SET
UNITY_3DHIT     STATIC     ATOMS    <user>   **** Atoms matching 3D or FLEX Search
0
