#	Name:			8-21b
#	Creating user name:	jeff
#	Creation time:		Fri Dec 13 09:55:00 2002

#	Modifying user name:	jeff
#	Modification time:	Fri Dec 13 09:55:02 2002

@<TRIPOS>MOLECULE
8-21b
   34    36     1     0     1
SMALL
USER_CHARGES
****
From 3DB ct
@<TRIPOS>ATOM
      1 C          21.249000   21.181000   16.941000 C.ar      1 <1>        -0.621100 
      2 C          21.968000   20.322000   17.770000 C.ar      1 <1>         0.044300 
      3 H          21.464000   19.557000   18.356000 H         1 <1>         0.185200 
      4 C          23.360000   20.445000   17.853000 C.ar      1 <1>        -0.186500 
      5 H          23.894000   19.757000   18.508000 H         1 <1>         0.182300 
      6 C          24.048000   21.417000   17.099000 C.ar      1 <1>         0.371300 
      7 C          23.307000   22.279000   16.281000 C.ar      1 <1>        -0.411600 
      8 H          23.761000   23.086000   15.717000 H         1 <1>         0.216900 
      9 C          21.914000   22.157000   16.195000 C.ar      1 <1>         0.142100 
     10 H          21.355000   22.838000   15.555000 H         1 <1>         0.165600 
     11 N          25.475000   21.505000   17.223000 N.pl3     1 <1>        -0.177100 
     12 C          26.429000   22.142000   16.416000 C.ar      1 <1>         0.686400 
     13 C          26.214000   22.733000   15.099000 C.ar      1 <1>         0.026300 
     14 C          26.468000   24.095000   14.883000 C.ar      1 <1>        -0.367000 
     15 H          26.807000   24.731000   15.699000 H         1 <1>         0.193700 
     16 C          26.282000   24.656000   13.617000 C.ar      1 <1>         0.322400 
     17 H          26.478000   25.715000   13.465000 H         1 <1>         0.067600 
     18 C          25.849000   23.856000   12.561000 C.ar      1 <1>        -0.630600 
     19 C          25.604000   22.499000   12.760000 C.ar      1 <1>         0.279000 
     20 H          25.271000   21.870000   11.938000 H         1 <1>         0.075800 
     21 C          25.790000   21.937000   14.026000 C.ar      1 <1>        -0.321300 
     22 H          25.603000   20.873000   14.165000 H         1 <1>         0.178700 
     23 Cl         25.621000   24.548000   11.002000 Cl        1 <1>         0.124500 
     24 C          27.622000   22.004000   17.096000 C.ar      1 <1>        -1.085300 
     25 C          27.355000   21.245000   18.231000 C.ar      1 <1>         0.425800 
     26 H          28.041000   20.910000   19.000000 H         1 <1>         0.131300 
     27 N          26.071000   20.898000   18.306000 N.ar      1 <1>        -0.422500 
     28 Br         29.329000   22.610000   16.616000 Br        1 <1>         0.291700 
     29 S          19.490000   21.026000   16.801000 S.o2      1 <1>         2.416000 
     30 O          18.929000   22.280000   16.329000 O.2       1 <1>        -0.989300 
     31 O          18.976000   20.393000   18.002000 O.2       1 <1>        -0.983000 
     32 N          19.333000   19.924000   15.549000 N.pl3     1 <1>        -1.307100 
     33 H          18.848000   20.341000   14.750000 H         1 <1>         0.485800 
     34 H          18.866000   19.071000   15.865000 H         1 <1>         0.489700 
@<TRIPOS>BOND
     1    1    2 ar   
     2    2    3 1    
     3    2    4 ar   
     4    4    5 1    
     5    4    6 ar   
     6    6    7 ar   
     7    7    8 1    
     8    7    9 ar   
     9    9   10 1    
    10    9    1 ar   
    11    6   11 1    
    12   11   12 ar   
    13   12   13 1    
    14   13   14 ar   
    15   14   15 1    
    16   14   16 ar   
    17   16   17 1    
    18   16   18 ar   
    19   18   19 ar   
    20   19   20 1    
    21   19   21 ar   
    22   21   22 1    
    23   21   13 ar   
    24   18   23 1    
    25   12   24 ar   
    26   24   25 ar   
    27   25   26 1    
    28   25   27 ar   
    29   27   11 ar   
    30   24   28 1    
    31    1   29 1    
    32   29   30 2    
    33   29   31 2    
    34   29   32 1    
    35   32   33 1    
    36   32   34 1    
@<TRIPOS>SUBSTRUCTURE
     1 ****        1 TEMP              0 ****  ****    0 ROOT 
@<TRIPOS>SET
UNITY_3DHIT     STATIC     ATOMS    <user>   **** Atoms matching 3D or FLEX Search
0
