#	Name:			8-22d
#	Creating user name:	jeff
#	Creation time:		Fri Dec 13 09:55:08 2002

#	Modifying user name:	jeff
#	Modification time:	Fri Dec 13 09:55:10 2002

@<TRIPOS>MOLECULE
8-22d
   38    40     1     0     1
SMALL
USER_CHARGES
****
From 3DB ct
@<TRIPOS>ATOM
      1 C          21.248000   21.180000   16.941000 C.ar      1 <1>        -0.634000 
      2 C          21.967000   20.320000   17.770000 C.ar      1 <1>         0.071900 
      3 H          21.463000   19.555000   18.356000 H         1 <1>         0.183100 
      4 C          23.358000   20.445000   17.853000 C.ar      1 <1>        -0.237400 
      5 H          23.893000   19.757000   18.508000 H         1 <1>         0.191400 
      6 C          24.047000   21.417000   17.099000 C.ar      1 <1>         0.368500 
      7 C          23.305000   22.278000   16.280000 C.ar      1 <1>        -0.320400 
      8 H          23.758000   23.085000   15.716000 H         1 <1>         0.169000 
      9 C          21.911000   22.156000   16.195000 C.ar      1 <1>         0.103100 
     10 H          21.352000   22.836000   15.554000 H         1 <1>         0.178100 
     11 N          25.474000   21.505000   17.223000 N.pl3     1 <1>        -0.047000 
     12 C          26.429000   22.139000   16.417000 C.ar      1 <1>         0.087200 
     13 C          26.213000   22.733000   15.099000 C.ar      1 <1>         0.062400 
     14 C          26.471000   24.091000   14.884000 C.ar      1 <1>        -0.131600 
     15 H          26.814000   24.727000   15.699000 H         1 <1>         0.172000 
     16 C          26.282000   24.654000   13.619000 C.ar      1 <1>        -0.262300 
     17 H          26.489000   25.714000   13.473000 H         1 <1>         0.192000 
     18 C          25.832000   23.868000   12.552000 C.ar      1 <1>         0.231800 
     19 C          25.602000   22.504000   12.761000 C.ar      1 <1>        -0.285600 
     20 H          25.274000   21.868000   11.940000 H         1 <1>         0.199000 
     21 C          25.790000   21.939000   14.026000 C.ar      1 <1>        -0.160200 
     22 H          25.605000   20.875000   14.162000 H         1 <1>         0.177900 
     23 C          25.661000   24.467000   11.186000 C.3       1 <1>        -0.310700 
     24 H          24.876000   23.946000   10.627000 H         1 <1>         0.089800 
     25 H          26.599000   24.398000   10.628000 H         1 <1>         0.103200 
     26 H          25.365000   25.519000   11.256000 H         1 <1>         0.090500 
     27 C          27.633000   22.007000   17.093000 C.ar      1 <1>        -0.157500 
     28 C          27.352000   21.248000   18.231000 C.ar      1 <1>         0.036800 
     29 H          28.037000   20.916000   19.003000 H         1 <1>         0.230000 
     30 N          26.069000   20.901000   18.306000 N.ar      1 <1>        -0.366400 
     31 C          28.912000   22.494000   16.689000 C.1       1 <1>         0.148300 
     32 N          29.958000   22.889000   16.366000 N.1       1 <1>        -0.289500 
     33 S          19.489000   21.027000   16.800000 S.o2      1 <1>         2.432700 
     34 O          18.928000   22.281000   16.329000 O.2       1 <1>        -0.993600 
     35 O          18.975000   20.394000   18.002000 O.2       1 <1>        -0.988500 
     36 N          19.329000   19.927000   15.547000 N.pl3     1 <1>        -1.304100 
     37 H          18.843000   20.345000   14.749000 H         1 <1>         0.483300 
     38 H          18.861000   19.073000   15.863000 H         1 <1>         0.487100 
@<TRIPOS>BOND
     1    1    2 ar   
     2    2    3 1    
     3    2    4 ar   
     4    4    5 1    
     5    4    6 ar   
     6    6    7 ar   
     7    7    8 1    
     8    7    9 ar   
     9    9   10 1    
    10    9    1 ar   
    11    6   11 1    
    12   11   12 ar   
    13   12   13 1    
    14   13   14 ar   
    15   14   15 1    
    16   14   16 ar   
    17   16   17 1    
    18   16   18 ar   
    19   18   19 ar   
    20   19   20 1    
    21   19   21 ar   
    22   21   22 1    
    23   21   13 ar   
    24   18   23 1    
    25   23   24 1    
    26   23   25 1    
    27   23   26 1    
    28   12   27 ar   
    29   27   28 ar   
    30   28   29 1    
    31   28   30 ar   
    32   30   11 ar   
    33   27   31 1    
    34   31   32 3    
    35    1   33 1    
    36   33   34 2    
    37   33   35 2    
    38   33   36 1    
    39   36   37 1    
    40   36   38 1    
@<TRIPOS>SUBSTRUCTURE
     1 ****        1 TEMP              0 ****  ****    0 ROOT 
@<TRIPOS>SET
UNITY_3DHIT     STATIC     ATOMS    <user>   **** Atoms matching 3D or FLEX Search
0
