#	Name:			8-22f
#	Creating user name:	jeff
#	Creation time:		Fri Dec 13 09:55:12 2002

#	Modifying user name:	jeff
#	Modification time:	Fri Dec 13 09:55:14 2002

@<TRIPOS>MOLECULE
8-22f
   40    42     1     0     1
SMALL
USER_CHARGES
****
From 3DB ct
@<TRIPOS>ATOM
      1 C          21.267000   21.057000   16.854000 C.ar      1 <1>        -0.615400 
      2 C          22.002000   20.239000   17.710000 C.ar      1 <1>         0.102500 
      3 H          21.516000   19.447000   18.273000 H         1 <1>         0.172400 
      4 C          23.381000   20.441000   17.843000 C.ar      1 <1>        -0.240400 
      5 H          23.924000   19.785000   18.523000 H         1 <1>         0.192600 
      6 C          24.043000   21.457000   17.124000 C.ar      1 <1>         0.380500 
      7 C          23.285000   22.260000   16.261000 C.ar      1 <1>        -0.367600 
      8 H          23.722000   23.029000   15.637000 H         1 <1>         0.203200 
      9 C          21.902000   22.063000   16.127000 C.ar      1 <1>         0.092500 
     10 H          21.339000   22.697000   15.444000 H         1 <1>         0.176200 
     11 N          25.466000   21.592000   17.265000 N.pl3     1 <1>        -0.048600 
     12 C          26.448000   22.038000   16.365000 C.ar      1 <1>         0.159600 
     13 C          26.213000   22.710000   15.090000 C.ar      1 <1>         0.314700 
     14 C          26.490000   24.078000   14.955000 C.ar      1 <1>        -0.415700 
     15 H          26.865000   24.655000   15.798000 H         1 <1>         0.207500 
     16 C          26.296000   24.717000   13.727000 C.ar      1 <1>         0.270500 
     17 H          26.511000   25.779000   13.636000 H         1 <1>         0.082600 
     18 C          25.828000   23.991000   12.633000 C.ar      1 <1>        -0.629100 
     19 C          25.556000   22.629000   12.756000 C.ar      1 <1>         0.307400 
     20 H          25.195000   22.058000   11.905000 H         1 <1>         0.083700 
     21 C          25.750000   21.989000   13.982000 C.ar      1 <1>        -0.409800 
     22 H          25.534000   20.926000   14.062000 H         1 <1>         0.251600 
     23 Cl         25.577000   24.780000   11.124000 Cl        1 <1>         0.138600 
     24 C          27.663000   21.746000   16.970000 C.ar      1 <1>        -0.804400 
     25 C          27.350000   21.244000   18.234000 C.ar      1 <1>         0.173600 
     26 H          28.025000   20.922000   19.019000 H         1 <1>         0.234800 
     27 N          26.037000   21.201000   18.452000 N.ar      1 <1>        -0.373700 
     28 S          29.264000   21.957000   16.383000 S.o2      1 <1>         2.297600 
     29 O          29.346000   21.101000   15.209000 O.2       1 <1>        -0.978700 
     30 O          30.125000   21.698000   17.531000 O.2       1 <1>        -0.971500 
     31 C          29.411000   23.658000   15.919000 C.3       1 <1>        -0.789000 
     32 H          30.465000   23.852000   15.709000 H         1 <1>         0.252200 
     33 H          29.079000   24.286000   16.746000 H         1 <1>         0.211900 
     34 H          28.826000   23.849000   15.021000 H         1 <1>         0.216800 
     35 S          19.531000   20.774000   16.664000 S.o2      1 <1>         2.403600 
     36 O          18.909000   21.991000   16.172000 O.2       1 <1>        -0.984400 
     37 O          19.013000   20.104000   17.844000 O.2       1 <1>        -0.973100 
     38 N          19.494000   19.651000   15.421000 N.pl3     1 <1>        -1.309000 
     39 H          19.005000   20.019000   14.601000 H         1 <1>         0.494100 
     40 H          19.087000   18.767000   15.737000 H         1 <1>         0.489600 
@<TRIPOS>BOND
     1    1    2 ar   
     2    2    3 1    
     3    2    4 ar   
     4    4    5 1    
     5    4    6 ar   
     6    6    7 ar   
     7    7    8 1    
     8    7    9 ar   
     9    9   10 1    
    10    9    1 ar   
    11    6   11 1    
    12   11   12 ar   
    13   12   13 1    
    14   13   14 ar   
    15   14   15 1    
    16   14   16 ar   
    17   16   17 1    
    18   16   18 ar   
    19   18   19 ar   
    20   19   20 1    
    21   19   21 ar   
    22   21   22 1    
    23   21   13 ar   
    24   18   23 1    
    25   12   24 ar   
    26   24   25 ar   
    27   25   26 1    
    28   25   27 ar   
    29   27   11 ar   
    30   24   28 1    
    31   28   29 2    
    32   28   30 2    
    33   28   31 1    
    34   31   32 1    
    35   31   33 1    
    36   31   34 1    
    37    1   35 1    
    38   35   36 2    
    39   35   37 2    
    40   35   38 1    
    41   38   39 1    
    42   38   40 1    
@<TRIPOS>SUBSTRUCTURE
     1 ****        1 TEMP              0 ****  ****    0 ROOT 
@<TRIPOS>SET
UNITY_3DHIT     STATIC     ATOMS    <user>   **** Atoms matching 3D or FLEX Search
0
