#	Name:			8-22a
#	Creating user name:	jeff
#	Creation time:		Fri Dec 13 09:55:02 2002

#	Modifying user name:	jeff
#	Modification time:	Fri Dec 13 09:55:04 2002

@<TRIPOS>MOLECULE
8-22a
   34    36     1     0     1
SMALL
USER_CHARGES
****
From 3DB ct
@<TRIPOS>ATOM
      1 C          21.247000   21.185000   16.948000 C.ar      1 <1>        -0.644900 
      2 C          21.963000   20.320000   17.775000 C.ar      1 <1>         0.074000 
      3 H          21.456000   19.558000   18.362000 H         1 <1>         0.180900 
      4 C          23.356000   20.436000   17.855000 C.ar      1 <1>        -0.240500 
      5 H          23.890000   19.746000   18.508000 H         1 <1>         0.189900 
      6 C          24.045000   21.403000   17.098000 C.ar      1 <1>         0.379400 
      7 C          23.308000   22.272000   16.283000 C.ar      1 <1>        -0.334500 
      8 H          23.770000   23.079000   15.724000 H         1 <1>         0.169700 
      9 C          21.914000   22.159000   16.201000 C.ar      1 <1>         0.109900 
     10 H          21.357000   22.844000   15.564000 H         1 <1>         0.175900 
     11 N          25.470000   21.490000   17.217000 N.pl3     1 <1>        -0.068500 
     12 C          26.416000   22.147000   16.422000 C.ar      1 <1>         0.151400 
     13 C          26.212000   22.732000   15.098000 C.ar      1 <1>        -0.088900 
     14 C          26.470000   24.093000   14.882000 C.ar      1 <1>        -0.011200 
     15 H          26.799000   24.732000   15.700000 H         1 <1>         0.160700 
     16 C          26.299000   24.650000   13.612000 C.ar      1 <1>        -0.420000 
     17 H          26.491000   25.706000   13.443000 H         1 <1>         0.232000 
     18 C          25.881000   23.844000   12.560000 C.ar      1 <1>         0.623500 
     19 C          25.635000   22.490000   12.751000 C.ar      1 <1>        -0.429700 
     20 H          25.316000   21.873000   11.916000 H         1 <1>         0.236800 
     21 C          25.806000   21.931000   14.020000 C.ar      1 <1>        -0.041200 
     22 H          25.622000   20.866000   14.157000 H         1 <1>         0.171300 
     23 F          25.718000   24.379000   11.343000 F         1 <1>        -0.371500 
     24 C          27.614000   22.058000   17.110000 C.ar      1 <1>        -0.474300 
     25 H          28.568000   22.466000   16.805000 H         1 <1>         0.252000 
     26 C          27.349000   21.264000   18.228000 C.ar      1 <1>         0.097500 
     27 H          28.042000   20.937000   18.996000 H         1 <1>         0.190500 
     28 N          26.078000   20.872000   18.282000 N.ar      1 <1>        -0.383000 
     29 S          19.487000   21.038000   16.812000 S.o2      1 <1>         2.435800 
     30 O          18.930000   22.294000   16.342000 O.2       1 <1>        -0.996000 
     31 O          18.971000   20.406000   18.014000 O.2       1 <1>        -0.991100 
     32 N          19.321000   19.937000   15.559000 N.pl3     1 <1>        -1.304800 
     33 H          18.835000   20.357000   14.763000 H         1 <1>         0.482800 
     34 H          18.851000   19.085000   15.876000 H         1 <1>         0.486100 
@<TRIPOS>BOND
     1    1    2 ar   
     2    2    3 1    
     3    2    4 ar   
     4    4    5 1    
     5    4    6 ar   
     6    6    7 ar   
     7    7    8 1    
     8    7    9 ar   
     9    9   10 1    
    10    9    1 ar   
    11    6   11 1    
    12   11   12 ar   
    13   12   13 1    
    14   13   14 ar   
    15   14   15 1    
    16   14   16 ar   
    17   16   17 1    
    18   16   18 ar   
    19   18   19 ar   
    20   19   20 1    
    21   19   21 ar   
    22   21   22 1    
    23   21   13 ar   
    24   18   23 1    
    25   12   24 ar   
    26   24   25 1    
    27   24   26 ar   
    28   26   27 1    
    29   26   28 ar   
    30   28   11 ar   
    31    1   29 1    
    32   29   30 2    
    33   29   31 2    
    34   29   32 1    
    35   32   33 1    
    36   32   34 1    
@<TRIPOS>SUBSTRUCTURE
     1 ****        1 TEMP              0 ****  ****    0 ROOT 
@<TRIPOS>SET
UNITY_3DHIT     STATIC     ATOMS    <user>   **** Atoms matching 3D or FLEX Search
0
