#	Name:			8-22c
#	Creating user name:	jeff
#	Creation time:		Fri Dec 13 09:55:06 2002

#	Modifying user name:	jeff
#	Modification time:	Fri Dec 13 09:55:07 2002

@<TRIPOS>MOLECULE
8-22c
   37    39     1     0     1
SMALL
USER_CHARGES
****
From 3DB ct
@<TRIPOS>ATOM
      1 C          21.246000   21.182000   16.941000 C.ar      1 <1>        -0.660100 
      2 C          21.964000   20.321000   17.769000 C.ar      1 <1>         0.092000 
      3 H          21.460000   19.556000   18.356000 H         1 <1>         0.177800 
      4 C          23.356000   20.444000   17.852000 C.ar      1 <1>        -0.280100 
      5 H          23.891000   19.756000   18.507000 H         1 <1>         0.196200 
      6 C          24.045000   21.415000   17.098000 C.ar      1 <1>         0.447900 
      7 C          23.303000   22.277000   16.279000 C.ar      1 <1>        -0.373000 
      8 H          23.759000   23.083000   15.715000 H         1 <1>         0.185100 
      9 C          21.910000   22.157000   16.195000 C.ar      1 <1>         0.120200 
     10 H          21.352000   22.838000   15.555000 H         1 <1>         0.173400 
     11 N          25.471000   21.502000   17.221000 N.pl3     1 <1>        -0.064600 
     12 C          26.428000   22.139000   16.421000 C.ar      1 <1>        -0.136900 
     13 C          26.213000   22.731000   15.101000 C.ar      1 <1>         0.258100 
     14 C          26.469000   24.092000   14.886000 C.ar      1 <1>        -0.214800 
     15 H          26.809000   24.726000   15.703000 H         1 <1>         0.176200 
     16 C          26.284000   24.653000   13.621000 C.ar      1 <1>        -0.130200 
     17 H          26.479000   25.712000   13.462000 H         1 <1>         0.151500 
     18 C          25.851000   23.857000   12.561000 C.ar      1 <1>        -0.129800 
     19 H          25.707000   24.295000   11.575000 H         1 <1>         0.151000 
     20 C          25.607000   22.499000   12.763000 C.ar      1 <1>        -0.142200 
     21 H          25.274000   21.877000   11.934000 H         1 <1>         0.157400 
     22 C          25.792000   21.936000   14.027000 C.ar      1 <1>        -0.244200 
     23 H          25.605000   20.872000   14.166000 H         1 <1>         0.187100 
     24 C          27.641000   22.019000   17.093000 C.ar      1 <1>        -0.027600 
     25 C          27.348000   21.253000   18.231000 C.ar      1 <1>        -0.019100 
     26 H          28.031000   20.922000   19.006000 H         1 <1>         0.216900 
     27 N          26.069000   20.898000   18.299000 N.ar      1 <1>        -0.369200 
     28 C          28.973000   22.536000   16.686000 C.3       1 <1>        -0.324800 
     29 H          29.760000   22.166000   17.351000 H         1 <1>         0.109000 
     30 H          28.987000   23.629000   16.723000 H         1 <1>         0.103000 
     31 H          29.218000   22.217000   15.668000 H         1 <1>         0.103100 
     32 S          19.486000   21.028000   16.803000 S.o2      1 <1>         2.442600 
     33 O          18.926000   22.282000   16.331000 O.2       1 <1>        -0.999300 
     34 O          18.973000   20.396000   18.005000 O.2       1 <1>        -0.994100 
     35 N          19.326000   19.926000   15.551000 N.pl3     1 <1>        -1.306200 
     36 H          18.840000   20.344000   14.753000 H         1 <1>         0.482200 
     37 H          18.858000   19.073000   15.867000 H         1 <1>         0.485800 
@<TRIPOS>BOND
     1    1    2 ar   
     2    2    3 1    
     3    2    4 ar   
     4    4    5 1    
     5    4    6 ar   
     6    6    7 ar   
     7    7    8 1    
     8    7    9 ar   
     9    9   10 1    
    10    9    1 ar   
    11    6   11 1    
    12   11   12 ar   
    13   12   13 1    
    14   13   14 ar   
    15   14   15 1    
    16   14   16 ar   
    17   16   17 1    
    18   16   18 ar   
    19   18   19 1    
    20   18   20 ar   
    21   20   21 1    
    22   20   22 ar   
    23   22   23 1    
    24   22   13 ar   
    25   12   24 ar   
    26   24   25 ar   
    27   25   26 1    
    28   25   27 ar   
    29   27   11 ar   
    30   24   28 1    
    31   28   29 1    
    32   28   30 1    
    33   28   31 1    
    34    1   32 1    
    35   32   33 2    
    36   32   34 2    
    37   32   35 1    
    38   35   36 1    
    39   35   37 1    
@<TRIPOS>SUBSTRUCTURE
     1 ****        1 TEMP              0 ****  ****    0 ROOT 
@<TRIPOS>SET
UNITY_3DHIT     STATIC     ATOMS    <user>   **** Atoms matching 3D or FLEX Search
0
