#	Name:			8-22e
#	Creating user name:	jeff
#	Creation time:		Fri Dec 13 09:55:10 2002

#	Modifying user name:	jeff
#	Modification time:	Fri Dec 13 09:55:12 2002

@<TRIPOS>MOLECULE
8-22e
   36    38     1     0     1
SMALL
USER_CHARGES
****
From 3DB ct
@<TRIPOS>ATOM
      1 C          21.250000   21.180000   16.930000 C.ar      1 <1>        -0.631400 
      2 C          21.971000   20.325000   17.761000 C.ar      1 <1>         0.082400 
      3 H          21.470000   19.558000   18.348000 H         1 <1>         0.183200 
      4 C          23.362000   20.456000   17.847000 C.ar      1 <1>        -0.229000 
      5 H          23.895000   19.770000   18.505000 H         1 <1>         0.187600 
      6 C          24.052000   21.430000   17.095000 C.ar      1 <1>         0.343500 
      7 C          23.306000   22.284000   16.273000 C.ar      1 <1>        -0.309700 
      8 H          23.752000   23.090000   15.703000 H         1 <1>         0.165500 
      9 C          21.913000   22.156000   16.184000 C.ar      1 <1>         0.100700 
     10 H          21.354000   22.833000   15.540000 H         1 <1>         0.181200 
     11 N          25.481000   21.519000   17.226000 N.pl3     1 <1>        -0.017700 
     12 C          26.452000   22.124000   16.410000 C.ar      1 <1>         0.055200 
     13 C          26.217000   22.727000   15.099000 C.ar      1 <1>         0.156400 
     14 C          26.472000   24.089000   14.889000 C.ar      1 <1>        -0.118500 
     15 H          26.837000   24.716000   15.701000 H         1 <1>         0.162900 
     16 C          26.253000   24.661000   13.634000 C.ar      1 <1>        -0.147400 
     17 H          26.448000   25.721000   13.479000 H         1 <1>         0.158100 
     18 C          25.786000   23.876000   12.581000 C.ar      1 <1>        -0.095200 
     19 H          25.617000   24.323000   11.603000 H         1 <1>         0.153100 
     20 C          25.541000   22.517000   12.778000 C.ar      1 <1>        -0.150500 
     21 H          25.180000   21.904000   11.954000 H         1 <1>         0.161900 
     22 C          25.758000   21.942000   14.032000 C.ar      1 <1>        -0.212900 
     23 H          25.565000   20.879000   14.168000 H         1 <1>         0.182100 
     24 C          27.658000   21.960000   17.088000 C.ar      1 <1>        -0.202800 
     25 C          27.348000   21.243000   18.247000 C.ar      1 <1>         0.008500 
     26 H          28.021000   20.911000   19.029000 H         1 <1>         0.259000 
     27 N          26.056000   20.936000   18.330000 N.ar      1 <1>        -0.331400 
     28 N          28.976000   22.383000   16.707000 N.2       1 <1>         0.857600 
     29 O          29.160000   22.790000   15.548000 O.2       1 <1>        -0.542200 
     30 O          29.867000   22.303000   17.573000 O.3       1 <1>        -0.537500 
     31 S          19.492000   21.017000   16.787000 S.o2      1 <1>         2.431000 
     32 O          18.927000   22.268000   16.312000 O.2       1 <1>        -0.990100 
     33 O          18.978000   20.385000   17.989000 O.2       1 <1>        -0.984100 
     34 N          19.341000   19.912000   15.537000 N.pl3     1 <1>        -1.303800 
     35 H          18.856000   20.325000   14.736000 H         1 <1>         0.485600 
     36 H          18.877000   19.057000   15.854000 H         1 <1>         0.488800 
@<TRIPOS>BOND
     1    1    2 ar   
     2    2    3 1    
     3    2    4 ar   
     4    4    5 1    
     5    4    6 ar   
     6    6    7 ar   
     7    7    8 1    
     8    7    9 ar   
     9    9   10 1    
    10    9    1 ar   
    11    6   11 1    
    12   11   12 ar   
    13   12   13 1    
    14   13   14 ar   
    15   14   15 1    
    16   14   16 ar   
    17   16   17 1    
    18   16   18 ar   
    19   18   19 1    
    20   18   20 ar   
    21   20   21 1    
    22   20   22 ar   
    23   22   23 1    
    24   22   13 ar   
    25   12   24 ar   
    26   24   25 ar   
    27   25   26 1    
    28   25   27 ar   
    29   27   11 ar   
    30   24   28 1    
    31   28   29 2    
    32   28   30 1    
    33    1   31 1    
    34   31   32 2    
    35   31   33 2    
    36   31   34 1    
    37   34   35 1    
    38   34   36 1    
@<TRIPOS>SUBSTRUCTURE
     1 ****        1 TEMP              0 ****  ****    0 ROOT 
@<TRIPOS>SET
UNITY_3DHIT     STATIC     ATOMS    <user>   **** Atoms matching 3D or FLEX Search
0
@<TRIPOS>UNITY_ATOM_ATTR
28 1
AtomExpr +1
