#	Name:			8-23
#	Creating user name:	jeff
#	Creation time:		Fri Dec 13 09:55:14 2002

#	Modifying user name:	jeff
#	Modification time:	Fri Dec 13 09:55:16 2002

@<TRIPOS>MOLECULE
8-23
   36    38     1     0     1
SMALL
USER_CHARGES
****
From 3DB ct
@<TRIPOS>ATOM
      1 C          21.254000   21.187000   16.936000 C.ar      1 <1>        -0.665800 
      2 C          21.969000   20.324000   17.765000 C.ar      1 <1>         0.098200 
      3 H          21.461000   19.561000   18.350000 H         1 <1>         0.174900 
      4 C          23.361000   20.443000   17.850000 C.ar      1 <1>        -0.298900 
      5 H          23.893000   19.754000   18.505000 H         1 <1>         0.193300 
      6 C          24.053000   21.412000   17.096000 C.ar      1 <1>         0.456400 
      7 C          23.315000   22.278000   16.277000 C.ar      1 <1>        -0.370000 
      8 H          23.774000   23.084000   15.717000 H         1 <1>         0.187900 
      9 C          21.922000   22.161000   16.190000 C.ar      1 <1>         0.118100 
     10 H          21.366000   22.844000   15.550000 H         1 <1>         0.171600 
     11 N          25.480000   21.498000   17.222000 N.pl3     1 <1>        -0.039900 
     12 C          26.436000   22.141000   16.421000 C.ar      1 <1>        -0.417800 
     13 C          26.213000   22.730000   15.100000 C.ar      1 <1>         0.335000 
     14 C          26.468000   24.090000   14.877000 C.ar      1 <1>        -0.252600 
     15 H          26.822000   24.724000   15.688000 H         1 <1>         0.180100 
     16 C          26.262000   24.650000   13.614000 C.ar      1 <1>        -0.126000 
     17 H          26.456000   25.709000   13.451000 H         1 <1>         0.148200 
     18 C          25.811000   23.854000   12.562000 C.ar      1 <1>        -0.141900 
     19 H          25.651000   24.291000   11.578000 H         1 <1>         0.149700 
     20 C          25.569000   22.497000   12.770000 C.ar      1 <1>        -0.147800 
     21 H          25.222000   21.873000   11.948000 H         1 <1>         0.156700 
     22 C          25.774000   21.934000   14.032000 C.ar      1 <1>        -0.252900 
     23 H          25.587000   20.871000   14.175000 H         1 <1>         0.187600 
     24 C          27.627000   22.023000   17.110000 C.ar      1 <1>         0.468100 
     25 C          27.351000   21.254000   18.244000 C.ar      1 <1>        -0.164100 
     26 H          28.034000   20.929000   19.020000 H         1 <1>         0.234200 
     27 N          26.072000   20.885000   18.302000 N.ar      1 <1>        -0.315600 
     28 N          28.822000   22.509000   16.740000 N.pl3     1 <1>        -1.191000 
     29 H          29.680000   22.380000   17.278000 H         1 <1>         0.515400 
     30 H          28.973000   23.043000   15.884000 H         1 <1>         0.506500 
     31 S          19.494000   21.038000   16.794000 S.o2      1 <1>         2.439700 
     32 O          18.938000   22.294000   16.323000 O.2       1 <1>        -1.001000 
     33 O          18.977000   20.406000   17.995000 O.2       1 <1>        -0.996500 
     34 N          19.334000   19.937000   15.541000 N.pl3     1 <1>        -1.302700 
     35 H          18.853000   20.358000   14.742000 H         1 <1>         0.480200 
     36 H          18.861000   19.086000   15.856000 H         1 <1>         0.482800 
@<TRIPOS>BOND
     1    1    2 ar   
     2    2    3 1    
     3    2    4 ar   
     4    4    5 1    
     5    4    6 ar   
     6    6    7 ar   
     7    7    8 1    
     8    7    9 ar   
     9    9   10 1    
    10    9    1 ar   
    11    6   11 1    
    12   11   12 ar   
    13   12   13 1    
    14   13   14 ar   
    15   14   15 1    
    16   14   16 ar   
    17   16   17 1    
    18   16   18 ar   
    19   18   19 1    
    20   18   20 ar   
    21   20   21 1    
    22   20   22 ar   
    23   22   23 1    
    24   22   13 ar   
    25   12   24 ar   
    26   24   25 ar   
    27   25   26 1    
    28   25   27 ar   
    29   27   11 ar   
    30   24   28 1    
    31   28   29 1    
    32   28   30 1    
    33    1   31 1    
    34   31   32 2    
    35   31   33 2    
    36   31   34 1    
    37   34   35 1    
    38   34   36 1    
@<TRIPOS>SUBSTRUCTURE
     1 ****        1 TEMP              0 ****  ****    0 ROOT 
@<TRIPOS>SET
UNITY_3DHIT     STATIC     ATOMS    <user>   **** Atoms matching 3D or FLEX Search
0
