#	Name:			8-24
#	Creating user name:	jeff
#	Creation time:		Fri Dec 13 09:55:16 2002

#	Modifying user name:	jeff
#	Modification time:	Fri Dec 13 09:55:18 2002

@<TRIPOS>MOLECULE
8-24
   37    39     1     0     1
SMALL
USER_CHARGES
****
From 3DB ct
@<TRIPOS>ATOM
      1 C          21.250000   21.182000   16.949000 C.ar      1 <1>        -0.629300 
      2 C          21.967000   20.318000   17.776000 C.ar      1 <1>         0.094600 
      3 H          21.461000   19.555000   18.363000 H         1 <1>         0.183200 
      4 C          23.360000   20.436000   17.856000 C.ar      1 <1>        -0.255700 
      5 H          23.894000   19.746000   18.508000 H         1 <1>         0.197200 
      6 C          24.048000   21.404000   17.099000 C.ar      1 <1>         0.351100 
      7 C          23.309000   22.273000   16.284000 C.ar      1 <1>        -0.328400 
      8 H          23.769000   23.079000   15.723000 H         1 <1>         0.185600 
      9 C          21.916000   22.157000   16.202000 C.ar      1 <1>         0.115900 
     10 H          21.358000   22.840000   15.564000 H         1 <1>         0.176300 
     11 N          25.474000   21.493000   17.217000 N.pl3     1 <1>         0.045300 
     12 C          26.415000   22.146000   16.415000 C.ar      1 <1>        -0.244100 
     13 C          26.215000   22.732000   15.094000 C.ar      1 <1>         0.273300 
     14 C          26.474000   24.092000   14.879000 C.ar      1 <1>        -0.203700 
     15 H          26.805000   24.729000   15.698000 H         1 <1>         0.187800 
     16 C          26.300000   24.653000   13.611000 C.ar      1 <1>        -0.147500 
     17 H          26.496000   25.712000   13.454000 H         1 <1>         0.162700 
     18 C          25.878000   23.857000   12.548000 C.ar      1 <1>        -0.098000 
     19 H          25.743000   24.295000   11.560000 H         1 <1>         0.152500 
     20 C          25.634000   22.499000   12.748000 C.ar      1 <1>        -0.156500 
     21 H          25.311000   21.876000   11.915000 H         1 <1>         0.163500 
     22 C          25.807000   21.936000   14.014000 C.ar      1 <1>        -0.232100 
     23 H          25.620000   20.872000   14.148000 H         1 <1>         0.184200 
     24 C          27.595000   22.046000   17.115000 C.ar      1 <1>         0.383900 
     25 C          27.366000   21.269000   18.251000 C.ar      1 <1>        -0.399200 
     26 N          26.077000   20.876000   18.291000 N.ar      1 <1>        -0.214800 
     27 C          28.394000   20.883000   19.264000 C.3       1 <1>         1.626500 
     28 F          29.087000   21.960000   19.740000 F         1 <1>        -0.471000 
     29 F          29.326000   20.024000   18.755000 F         1 <1>        -0.464500 
     30 F          27.865000   20.261000   20.360000 F         1 <1>        -0.469400 
     31 F          28.746000   22.540000   16.741000 F         1 <1>        -0.295900 
     32 S          19.489000   21.037000   16.813000 S.o2      1 <1>         2.416100 
     33 O          18.933000   22.295000   16.346000 O.2       1 <1>        -0.983800 
     34 O          18.977000   20.404000   18.015000 O.2       1 <1>        -0.979500 
     35 N          19.321000   19.940000   15.559000 N.pl3     1 <1>        -1.301300 
     36 H          18.836000   20.362000   14.763000 H         1 <1>         0.486100 
     37 H          18.849000   19.088000   15.875000 H         1 <1>         0.489200 
@<TRIPOS>BOND
     1    1    2 ar   
     2    2    3 1    
     3    2    4 ar   
     4    4    5 1    
     5    4    6 ar   
     6    6    7 ar   
     7    7    8 1    
     8    7    9 ar   
     9    9   10 1    
    10    9    1 ar   
    11    6   11 1    
    12   11   12 ar   
    13   12   13 1    
    14   13   14 ar   
    15   14   15 1    
    16   14   16 ar   
    17   16   17 1    
    18   16   18 ar   
    19   18   19 1    
    20   18   20 ar   
    21   20   21 1    
    22   20   22 ar   
    23   22   23 1    
    24   22   13 ar   
    25   12   24 ar   
    26   24   25 ar   
    27   25   26 ar   
    28   26   11 ar   
    29   25   27 1    
    30   27   28 1    
    31   27   29 1    
    32   27   30 1    
    33   24   31 1    
    34    1   32 1    
    35   32   33 2    
    36   32   34 2    
    37   32   35 1    
    38   35   36 1    
    39   35   37 1    
@<TRIPOS>SUBSTRUCTURE
     1 ****        1 TEMP              0 ****  ****    0 ROOT 
@<TRIPOS>SET
UNITY_3DHIT     STATIC     ATOMS    <user>   **** Atoms matching 3D or FLEX Search
0
