#	Name:			8-25d
#	Creating user name:	jeff
#	Creation time:		Fri Dec 13 09:55:23 2002

#	Modifying user name:	jeff
#	Modification time:	Fri Dec 13 09:55:25 2002

@<TRIPOS>MOLECULE
8-25d
   41    43     1     0     1
SMALL
USER_CHARGES
****
From 3DB ct
@<TRIPOS>ATOM
      1 C          21.254000   21.185000   16.940000 C.ar      1 <1>        -0.631700 
      2 C          21.970000   20.323000   17.769000 C.ar      1 <1>         0.079100 
      3 H          21.463000   19.559000   18.355000 H         1 <1>         0.184400 
      4 C          23.362000   20.442000   17.853000 C.ar      1 <1>        -0.230500 
      5 H          23.895000   19.753000   18.507000 H         1 <1>         0.190400 
      6 C          24.052000   21.411000   17.097000 C.ar      1 <1>         0.341200 
      7 C          23.314000   22.277000   16.280000 C.ar      1 <1>        -0.321300 
      8 H          23.773000   23.085000   15.721000 H         1 <1>         0.162800 
      9 C          21.920000   22.159000   16.194000 C.ar      1 <1>         0.115800 
     10 H          21.364000   22.843000   15.555000 H         1 <1>         0.177900 
     11 N          25.479000   21.497000   17.220000 N.pl3     1 <1>         0.012900 
     12 C          26.430000   22.132000   16.413000 C.ar      1 <1>        -0.193000 
     13 C          26.208000   22.728000   15.097000 C.ar      1 <1>         0.406100 
     14 C          26.466000   24.089000   14.885000 C.ar      1 <1>        -0.233300 
     15 H          26.813000   24.720000   15.702000 H         1 <1>         0.180300 
     16 C          26.277000   24.655000   13.622000 C.ar      1 <1>        -0.141400 
     17 H          26.473000   25.715000   13.467000 H         1 <1>         0.165300 
     18 C          25.838000   23.865000   12.561000 C.ar      1 <1>        -0.130800 
     19 H          25.691000   24.307000   11.577000 H         1 <1>         0.161200 
     20 C          25.593000   22.507000   12.758000 C.ar      1 <1>        -0.172600 
     21 H          25.257000   21.888000   11.928000 H         1 <1>         0.169600 
     22 C          25.782000   21.938000   14.020000 C.ar      1 <1>        -0.244700 
     23 H          25.594000   20.874000   14.152000 H         1 <1>         0.167800 
     24 C          27.621000   22.018000   17.107000 C.ar      1 <1>         0.161300 
     25 C          27.357000   21.291000   18.281000 C.ar      1 <1>        -0.262700 
     26 N          26.069000   20.903000   18.309000 N.ar      1 <1>        -0.256300 
     27 C          28.346000   20.948000   19.354000 C.3       1 <1>         1.552500 
     28 F          28.852000   22.057000   19.970000 F         1 <1>        -0.463500 
     29 F          29.421000   20.257000   18.869000 F         1 <1>        -0.450300 
     30 F          27.818000   20.173000   20.349000 F         1 <1>        -0.462100 
     31 O          28.802000   22.557000   16.729000 O.3       1 <1>        -0.419800 
     32 C          29.463000   21.748000   15.752000 C.3       1 <1>         0.170500 
     33 H          30.459000   22.170000   15.588000 H         1 <1>         0.079300 
     34 H          28.928000   21.761000   14.798000 H         1 <1>        -0.009400 
     35 H          29.583000   20.718000   16.107000 H         1 <1>         0.023300 
     36 S          19.494000   21.033000   16.798000 S.o2      1 <1>         2.422100 
     37 O          18.937000   22.289000   16.327000 O.2       1 <1>        -0.987500 
     38 O          18.978000   20.401000   17.999000 O.2       1 <1>        -0.981900 
     39 N          19.335000   19.933000   15.546000 N.pl3     1 <1>        -1.308000 
     40 H          18.850000   20.350000   14.747000 H         1 <1>         0.486300 
     41 H          18.867000   19.079000   15.862000 H         1 <1>         0.490500 
@<TRIPOS>BOND
     1    1    2 ar   
     2    2    3 1    
     3    2    4 ar   
     4    4    5 1    
     5    4    6 ar   
     6    6    7 ar   
     7    7    8 1    
     8    7    9 ar   
     9    9   10 1    
    10    9    1 ar   
    11    6   11 1    
    12   11   12 ar   
    13   12   13 1    
    14   13   14 ar   
    15   14   15 1    
    16   14   16 ar   
    17   16   17 1    
    18   16   18 ar   
    19   18   19 1    
    20   18   20 ar   
    21   20   21 1    
    22   20   22 ar   
    23   22   23 1    
    24   22   13 ar   
    25   12   24 ar   
    26   24   25 ar   
    27   25   26 ar   
    28   26   11 ar   
    29   25   27 1    
    30   27   28 1    
    31   27   29 1    
    32   27   30 1    
    33   24   31 1    
    34   31   32 1    
    35   32   33 1    
    36   32   34 1    
    37   32   35 1    
    38    1   36 1    
    39   36   37 2    
    40   36   38 2    
    41   36   39 1    
    42   39   40 1    
    43   39   41 1    
@<TRIPOS>SUBSTRUCTURE
     1 ****        1 TEMP              0 ****  ****    0 ROOT 
@<TRIPOS>SET
UNITY_3DHIT     STATIC     ATOMS    <user>   **** Atoms matching 3D or FLEX Search
0
