#	Name:			8-25b
#	Creating user name:	jeff
#	Creation time:		Fri Dec 13 09:55:20 2002

#	Modifying user name:	jeff
#	Modification time:	Fri Dec 13 09:55:22 2002

@<TRIPOS>MOLECULE
8-25b
   43    45     1     0     1
SMALL
USER_CHARGES
****
From 3DB ct
@<TRIPOS>ATOM
      1 C          21.249000   21.184000   16.937000 C.ar      1 <1>        -0.634900 
      2 C          21.967000   20.325000   17.767000 C.ar      1 <1>         0.081800 
      3 H          21.462000   19.560000   18.353000 H         1 <1>         0.184100 
      4 C          23.359000   20.449000   17.852000 C.ar      1 <1>        -0.219100 
      5 H          23.892000   19.761000   18.508000 H         1 <1>         0.183900 
      6 C          24.049000   21.420000   17.099000 C.ar      1 <1>         0.346900 
      7 C          23.307000   22.282000   16.279000 C.ar      1 <1>        -0.369900 
      8 H          23.762000   23.088000   15.715000 H         1 <1>         0.172700 
      9 C          21.914000   22.159000   16.192000 C.ar      1 <1>         0.139000 
     10 H          21.357000   22.840000   15.550000 H         1 <1>         0.172100 
     11 N          25.476000   21.507000   17.224000 N.pl3     1 <1>         0.004300 
     12 C          26.431000   22.140000   16.425000 C.ar      1 <1>        -0.143100 
     13 C          26.209000   22.731000   15.106000 C.ar      1 <1>         0.605100 
     14 C          26.461000   24.092000   14.888000 C.ar      1 <1>        -0.478100 
     15 H          26.803000   24.729000   15.703000 H         1 <1>         0.214000 
     16 C          26.272000   24.651000   13.621000 C.ar      1 <1>         0.303400 
     17 H          26.467000   25.710000   13.467000 H         1 <1>         0.076700 
     18 C          25.837000   23.849000   12.568000 C.ar      1 <1>        -0.631800 
     19 C          25.592000   22.492000   12.770000 C.ar      1 <1>         0.234400 
     20 H          25.258000   21.861000   11.949000 H         1 <1>         0.092900 
     21 C          25.782000   21.932000   14.036000 C.ar      1 <1>        -0.419100 
     22 H          25.597000   20.869000   14.179000 H         1 <1>         0.201600 
     23 Cl         25.604000   24.537000   11.007000 Cl        1 <1>         0.131300 
     24 C          27.648000   22.008000   17.088000 C.ar      1 <1>        -0.155300 
     25 C          27.366000   21.233000   18.247000 C.ar      1 <1>        -0.185400 
     26 N          26.065000   20.898000   18.297000 N.ar      1 <1>        -0.272600 
     27 C          28.353000   20.792000   19.302000 C.3       1 <1>         1.501900 
     28 F          28.848000   21.846000   20.014000 F         1 <1>        -0.460200 
     29 F          29.432000   20.152000   18.764000 F         1 <1>        -0.435400 
     30 F          27.819000   19.931000   20.218000 F         1 <1>        -0.450400 
     31 C          28.990000   22.523000   16.660000 C.3       1 <1>        -0.064100 
     32 H          29.637000   22.640000   17.538000 H         1 <1>         0.068900 
     33 H          28.887000   23.525000   16.229000 H         1 <1>         0.051400 
     34 C          29.677000   21.609000   15.657000 C.3       1 <1>         0.005500 
     35 H          30.661000   22.009000   15.392000 H         1 <1>         0.023600 
     36 H          29.093000   21.514000   14.736000 H         1 <1>        -0.018700 
     37 H          29.818000   20.604000   16.069000 H         1 <1>         0.019000 
     38 S          19.491000   21.025000   16.793000 S.o2      1 <1>         2.424600 
     39 O          18.928000   22.278000   16.320000 O.2       1 <1>        -0.987100 
     40 O          18.974000   20.393000   17.994000 O.2       1 <1>        -0.981800 
     41 N          19.338000   19.922000   15.543000 N.pl3     1 <1>        -1.315900 
     42 H          18.852000   20.336000   14.743000 H         1 <1>         0.489200 
     43 H          18.874000   19.067000   15.860000 H         1 <1>         0.494600 
@<TRIPOS>BOND
     1    1    2 ar   
     2    2    3 1    
     3    2    4 ar   
     4    4    5 1    
     5    4    6 ar   
     6    6    7 ar   
     7    7    8 1    
     8    7    9 ar   
     9    9   10 1    
    10    9    1 ar   
    11    6   11 1    
    12   11   12 ar   
    13   12   13 1    
    14   13   14 ar   
    15   14   15 1    
    16   14   16 ar   
    17   16   17 1    
    18   16   18 ar   
    19   18   19 ar   
    20   19   20 1    
    21   19   21 ar   
    22   21   22 1    
    23   21   13 ar   
    24   18   23 1    
    25   12   24 ar   
    26   24   25 ar   
    27   25   26 ar   
    28   26   11 ar   
    29   25   27 1    
    30   27   28 1    
    31   27   29 1    
    32   27   30 1    
    33   24   31 1    
    34   31   32 1    
    35   31   33 1    
    36   31   34 1    
    37   34   35 1    
    38   34   36 1    
    39   34   37 1    
    40    1   38 1    
    41   38   39 2    
    42   38   40 2    
    43   38   41 1    
    44   41   42 1    
    45   41   43 1    
@<TRIPOS>SUBSTRUCTURE
     1 ****        1 TEMP              0 ****  ****    0 ROOT 
@<TRIPOS>SET
UNITY_3DHIT     STATIC     ATOMS    <user>   **** Atoms matching 3D or FLEX Search
0
