#	Name:			8-25a
#	Creating user name:	jeff
#	Creation time:		Fri Dec 13 09:55:18 2002

#	Modifying user name:	jeff
#	Modification time:	Fri Dec 13 09:55:20 2002

@<TRIPOS>MOLECULE
8-25a
   40    42     1     0     1
SMALL
USER_CHARGES
****
From 3DB ct
@<TRIPOS>ATOM
      1 C          21.250000   21.183000   16.939000 C.ar      1 <1>        -0.628900 
      2 C          21.967000   20.323000   17.768000 C.ar      1 <1>         0.086800 
      3 H          21.462000   19.558000   18.354000 H         1 <1>         0.183500 
      4 C          23.359000   20.446000   17.853000 C.ar      1 <1>        -0.240300 
      5 H          23.892000   19.757000   18.508000 H         1 <1>         0.192000 
      6 C          24.048000   21.416000   17.099000 C.ar      1 <1>         0.349800 
      7 C          23.309000   22.279000   16.280000 C.ar      1 <1>        -0.347100 
      8 H          23.765000   23.087000   15.719000 H         1 <1>         0.183700 
      9 C          21.915000   22.159000   16.193000 C.ar      1 <1>         0.118200 
     10 H          21.358000   22.840000   15.553000 H         1 <1>         0.174200 
     11 N          25.475000   21.503000   17.223000 N.pl3     1 <1>         0.038600 
     12 C          26.428000   22.138000   16.424000 C.ar      1 <1>        -0.205700 
     13 C          26.208000   22.730000   15.104000 C.ar      1 <1>         0.520800 
     14 C          26.463000   24.090000   14.888000 C.ar      1 <1>        -0.456000 
     15 H          26.803000   24.726000   15.704000 H         1 <1>         0.222100 
     16 C          26.277000   24.651000   13.621000 C.ar      1 <1>         0.306800 
     17 H          26.473000   25.710000   13.469000 H         1 <1>         0.074100 
     18 C          25.844000   23.851000   12.566000 C.ar      1 <1>        -0.635300 
     19 C          25.599000   22.494000   12.765000 C.ar      1 <1>         0.285200 
     20 H          25.266000   21.864000   11.943000 H         1 <1>         0.082200 
     21 C          25.785000   21.932000   14.031000 C.ar      1 <1>        -0.473400 
     22 H          25.599000   20.869000   14.171000 H         1 <1>         0.227100 
     23 Cl         25.614000   24.542000   11.006000 Cl        1 <1>         0.130300 
     24 C          27.642000   22.021000   17.093000 C.ar      1 <1>         0.045800 
     25 C          27.363000   21.251000   18.254000 C.ar      1 <1>        -0.291900 
     26 N          26.068000   20.895000   18.295000 N.ar      1 <1>        -0.267300 
     27 C          28.352000   20.825000   19.314000 C.3       1 <1>         1.592200 
     28 F          29.054000   21.882000   19.819000 F         1 <1>        -0.474200 
     29 F          29.278000   19.946000   18.830000 F         1 <1>        -0.466200 
     30 F          27.767000   20.211000   20.385000 F         1 <1>        -0.464500 
     31 C          28.965000   22.554000   16.663000 C.3       1 <1>        -0.364100 
     32 H          29.012000   23.634000   16.837000 H         1 <1>         0.127300 
     33 H          29.135000   22.365000   15.598000 H         1 <1>         0.114800 
     34 H          29.786000   22.085000   17.214000 H         1 <1>         0.134600 
     35 S          19.491000   21.030000   16.796000 S.o2      1 <1>         2.421000 
     36 O          18.931000   22.285000   16.325000 O.2       1 <1>        -0.986100 
     37 O          18.975000   20.398000   17.997000 O.2       1 <1>        -0.981600 
     38 N          19.332000   19.930000   15.543000 N.pl3     1 <1>        -1.305000 
     39 H          18.848000   20.347000   14.745000 H         1 <1>         0.486400 
     40 H          18.865000   19.076000   15.859000 H         1 <1>         0.490200 
@<TRIPOS>BOND
     1    1    2 ar   
     2    2    3 1    
     3    2    4 ar   
     4    4    5 1    
     5    4    6 ar   
     6    6    7 ar   
     7    7    8 1    
     8    7    9 ar   
     9    9   10 1    
    10    9    1 ar   
    11    6   11 1    
    12   11   12 ar   
    13   12   13 1    
    14   13   14 ar   
    15   14   15 1    
    16   14   16 ar   
    17   16   17 1    
    18   16   18 ar   
    19   18   19 ar   
    20   19   20 1    
    21   19   21 ar   
    22   21   22 1    
    23   21   13 ar   
    24   18   23 1    
    25   12   24 ar   
    26   24   25 ar   
    27   25   26 ar   
    28   26   11 ar   
    29   25   27 1    
    30   27   28 1    
    31   27   29 1    
    32   27   30 1    
    33   24   31 1    
    34   31   32 1    
    35   31   33 1    
    36   31   34 1    
    37    1   35 1    
    38   35   36 2    
    39   35   37 2    
    40   35   38 1    
    41   38   39 1    
    42   38   40 1    
@<TRIPOS>SUBSTRUCTURE
     1 ****        1 TEMP              0 ****  ****    0 ROOT 
@<TRIPOS>SET
UNITY_3DHIT     STATIC     ATOMS    <user>   **** Atoms matching 3D or FLEX Search
0
