#	Name:			8-26
#	Creating user name:	jeff
#	Creation time:		Fri Dec 13 09:55:25 2002

#	Modifying user name:	jeff
#	Modification time:	Fri Dec 13 09:55:27 2002

@<TRIPOS>MOLECULE
8-26
   38    40     1     0     1
SMALL
USER_CHARGES
****
From 3DB ct
@<TRIPOS>ATOM
      1 C          21.255000   21.187000   16.939000 C.ar      1 <1>        -0.635000 
      2 C          21.970000   20.324000   17.768000 C.ar      1 <1>         0.089400 
      3 H          21.462000   19.561000   18.354000 H         1 <1>         0.182100 
      4 C          23.362000   20.441000   17.852000 C.ar      1 <1>        -0.255200 
      5 H          23.894000   19.751000   18.506000 H         1 <1>         0.193900 
      6 C          24.053000   21.409000   17.096000 C.ar      1 <1>         0.355900 
      7 C          23.317000   22.277000   16.279000 C.ar      1 <1>        -0.322000 
      8 H          23.777000   23.084000   15.720000 H         1 <1>         0.179400 
      9 C          21.923000   22.161000   16.194000 C.ar      1 <1>         0.116000 
     10 H          21.367000   22.846000   15.555000 H         1 <1>         0.175800 
     11 N          25.480000   21.494000   17.219000 N.pl3     1 <1>         0.039100 
     12 C          26.428000   22.143000   16.422000 C.ar      1 <1>        -0.222500 
     13 C          26.212000   22.729000   15.099000 C.ar      1 <1>         0.260500 
     14 C          26.467000   24.089000   14.877000 C.ar      1 <1>        -0.161600 
     15 H          26.818000   24.724000   15.689000 H         1 <1>         0.173300 
     16 C          26.270000   24.648000   13.612000 C.ar      1 <1>        -0.163500 
     17 H          26.465000   25.707000   13.450000 H         1 <1>         0.158900 
     18 C          25.826000   23.851000   12.558000 C.ar      1 <1>        -0.103100 
     19 H          25.672000   24.288000   11.573000 H         1 <1>         0.149000 
     20 C          25.584000   22.494000   12.765000 C.ar      1 <1>        -0.167200 
     21 H          25.244000   21.870000   11.940000 H         1 <1>         0.161100 
     22 C          25.781000   21.933000   14.029000 C.ar      1 <1>        -0.221700 
     23 H          25.594000   20.869000   14.169000 H         1 <1>         0.176000 
     24 C          27.617000   22.038000   17.118000 C.ar      1 <1>         0.286300 
     25 C          27.366000   21.257000   18.263000 C.ar      1 <1>        -0.412800 
     26 N          26.074000   20.877000   18.291000 N.ar      1 <1>        -0.224800 
     27 C          28.344000   20.837000   19.321000 C.3       1 <1>         1.556000 
     28 F          29.602000   21.319000   19.083000 F         1 <1>        -0.476400 
     29 F          28.468000   19.481000   19.416000 F         1 <1>        -0.443400 
     30 F          27.996000   21.281000   20.564000 F         1 <1>        -0.453100 
     31 O          28.770000   22.578000   16.677000 O.3       1 <1>        -0.598100 
     32 H          29.515000   22.393000   17.287000 H         1 <1>         0.486400 
     33 S          19.495000   21.041000   16.798000 S.o2      1 <1>         2.420300 
     34 O          18.940000   22.297000   16.327000 O.2       1 <1>        -0.986900 
     35 O          18.978000   20.409000   17.999000 O.2       1 <1>        -0.982900 
     36 N          19.332000   19.941000   15.544000 N.pl3     1 <1>        -1.302100 
     37 H          18.847000   20.361000   14.747000 H         1 <1>         0.485000 
     38 H          18.861000   19.089000   15.860000 H         1 <1>         0.488200 
@<TRIPOS>BOND
     1    1    2 ar   
     2    2    3 1    
     3    2    4 ar   
     4    4    5 1    
     5    4    6 ar   
     6    6    7 ar   
     7    7    8 1    
     8    7    9 ar   
     9    9   10 1    
    10    9    1 ar   
    11    6   11 1    
    12   11   12 ar   
    13   12   13 1    
    14   13   14 ar   
    15   14   15 1    
    16   14   16 ar   
    17   16   17 1    
    18   16   18 ar   
    19   18   19 1    
    20   18   20 ar   
    21   20   21 1    
    22   20   22 ar   
    23   22   23 1    
    24   22   13 ar   
    25   12   24 ar   
    26   24   25 ar   
    27   25   26 ar   
    28   26   11 ar   
    29   25   27 1    
    30   27   28 1    
    31   27   29 1    
    32   27   30 1    
    33   24   31 1    
    34   31   32 1    
    35    1   33 1    
    36   33   34 2    
    37   33   35 2    
    38   33   36 1    
    39   36   37 1    
    40   36   38 1    
@<TRIPOS>SUBSTRUCTURE
     1 ****        1 TEMP              0 ****  ****    0 ROOT 
@<TRIPOS>SET
UNITY_3DHIT     STATIC     ATOMS    <user>   **** Atoms matching 3D or FLEX Search
0
