#	Name:			8-28a
#	Creating user name:	jeff
#	Creation time:		Fri Dec 13 09:55:27 2002

#	Modifying user name:	jeff
#	Modification time:	Fri Dec 13 09:55:29 2002

@<TRIPOS>MOLECULE
8-28a
   37    39     1     0     1
SMALL
USER_CHARGES
****
From 3DB ct
@<TRIPOS>ATOM
      1 C          25.764000   23.810000   12.616000 C.ar      1 <1>         0.549400 
      2 C          25.519000   22.460000   12.823000 C.ar      1 <1>        -0.325200 
      3 H          25.172000   21.839000   12.002000 H         1 <1>         0.223100 
      4 C          25.724000   21.909000   14.091000 C.ar      1 <1>        -0.149000 
      5 H          25.531000   20.846000   14.226000 H         1 <1>         0.178500 
      6 C          26.188000   22.708000   15.155000 C.ar      1 <1>         0.006300 
      7 C          26.407000   24.074000   14.927000 C.ar      1 <1>        -0.027600 
      8 H          26.700000   24.757000   15.717000 H         1 <1>         0.178800 
      9 C          26.200000   24.621000   13.655000 C.ar      1 <1>        -0.358000 
     10 H          26.370000   25.680000   13.480000 H         1 <1>         0.235200 
     11 N          26.384000   22.106000   16.440000 N.pl3     1 <1>         0.201900 
     12 C          25.492000   21.431000   17.276000 C.ar      1 <1>        -0.092700 
     13 C          24.036000   21.367000   17.159000 C.ar      1 <1>         0.277500 
     14 C          23.361000   22.239000   16.293000 C.ar      1 <1>        -0.272300 
     15 H          23.911000   22.985000   15.720000 H         1 <1>         0.196500 
     16 C          21.972000   22.169000   16.158000 C.ar      1 <1>         0.053000 
     17 H          21.461000   22.857000   15.488000 H         1 <1>         0.180500 
     18 C          21.252000   21.219000   16.889000 C.ar      1 <1>        -0.567900 
     19 C          21.914000   20.330000   17.739000 C.ar      1 <1>        -0.010300 
     20 H          21.364000   19.579000   18.302000 H         1 <1>         0.192000 
     21 C          23.304000   20.403000   17.868000 C.ar      1 <1>        -0.203400 
     22 H          23.810000   19.699000   18.528000 H         1 <1>         0.180400 
     23 S          19.494000   21.120000   16.689000 S.o2      1 <1>         2.437000 
     24 O          19.012000   22.322000   16.032000 O.2       1 <1>        -0.986500 
     25 O          18.902000   20.673000   17.937000 O.2       1 <1>        -0.987500 
     26 N          19.337000   19.869000   15.586000 N.pl3     1 <1>        -1.295400 
     27 H          18.903000   20.195000   14.719000 H         1 <1>         0.482000 
     28 H          18.820000   19.084000   15.989000 H         1 <1>         0.484800 
     29 C          26.262000   20.894000   18.291000 C.ar      1 <1>        -0.317900 
     30 H          25.907000   20.289000   19.117000 H         1 <1>         0.253800 
     31 C          27.577000   21.360000   18.086000 C.ar      1 <1>        -0.209500 
     32 N          27.638000   22.143000   16.993000 N.ar      1 <1>        -0.304600 
     33 C          28.770000   21.085000   18.962000 C.3       1 <1>         1.526400 
     34 F          28.537000   20.104000   19.883000 F         1 <1>        -0.464200 
     35 F          29.159000   22.187000   19.670000 F         1 <1>        -0.449600 
     36 F          29.864000   20.683000   18.249000 F         1 <1>        -0.455000 
     37 F          25.567000   24.340000   11.401000 F         1 <1>        -0.360600 
@<TRIPOS>BOND
     1    1    2 ar   
     2    2    3 1    
     3    2    4 ar   
     4    4    5 1    
     5    4    6 ar   
     6    6    7 ar   
     7    7    8 1    
     8    7    9 ar   
     9    9   10 1    
    10    9    1 ar   
    11    6   11 1    
    12   11   12 ar   
    13   12   13 1    
    14   13   14 ar   
    15   14   15 1    
    16   14   16 ar   
    17   16   17 1    
    18   16   18 ar   
    19   18   19 ar   
    20   19   20 1    
    21   19   21 ar   
    22   21   22 1    
    23   21   13 ar   
    24   18   23 1    
    25   23   24 2    
    26   23   25 2    
    27   23   26 1    
    28   26   27 1    
    29   26   28 1    
    30   12   29 ar   
    31   29   30 1    
    32   29   31 ar   
    33   31   32 ar   
    34   32   11 ar   
    35   31   33 1    
    36   33   34 1    
    37   33   35 1    
    38   33   36 1    
    39    1   37 1    
@<TRIPOS>SUBSTRUCTURE
     1 ****        1 TEMP              0 ****  ****    0 ROOT 
@<TRIPOS>SET
UNITY_3DHIT     STATIC     ATOMS    <user>   **** Atoms matching 3D or FLEX Search
0
