#	Name:			8-29
#	Creating user name:	jeff
#	Creation time:		Fri Dec 13 09:53:53 2002

#	Modifying user name:	jeff
#	Modification time:	Fri Dec 13 09:53:55 2002

@<TRIPOS>MOLECULE
8-29
   40    42     1     0     1
SMALL
USER_CHARGES
****
From 3DB ct
@<TRIPOS>ATOM
      1 C          21.256000   21.174000   16.930000 C.ar      1 <1>        -0.604300 
      2 C          21.968000   20.317000   17.769000 C.ar      1 <1>         0.045500 
      3 H          21.459000   19.556000   18.356000 H         1 <1>         0.180000 
      4 C          23.359000   20.436000   17.857000 C.ar      1 <1>        -0.188300 
      5 H          23.892000   19.749000   18.514000 H         1 <1>         0.183600 
      6 C          24.050000   21.401000   17.100000 C.ar      1 <1>         0.310700 
      7 C          23.316000   22.272000   16.284000 C.ar      1 <1>        -0.258300 
      8 H          23.781000   23.081000   15.729000 H         1 <1>         0.154000 
      9 C          21.923000   22.157000   16.195000 C.ar      1 <1>         0.043000 
     10 H          21.367000   22.841000   15.556000 H         1 <1>         0.206900 
     11 N          25.475000   21.487000   17.219000 N.pl3     1 <1>        -0.042300 
     12 C          26.414000   22.148000   16.425000 C.ar      1 <1>         0.187400 
     13 C          26.207000   22.729000   15.100000 C.ar      1 <1>        -0.101800 
     14 C          26.464000   24.090000   14.880000 C.ar      1 <1>        -0.003700 
     15 H          26.796000   24.730000   15.696000 H         1 <1>         0.160700 
     16 C          26.287000   24.646000   13.611000 C.ar      1 <1>        -0.411200 
     17 H          26.479000   25.701000   13.440000 H         1 <1>         0.234400 
     18 C          25.864000   23.838000   12.562000 C.ar      1 <1>         0.617000 
     19 C          25.619000   22.484000   12.756000 C.ar      1 <1>        -0.407000 
     20 H          25.295000   21.867000   11.924000 H         1 <1>         0.237100 
     21 C          25.797000   21.927000   14.024000 C.ar      1 <1>        -0.060000 
     22 H          25.612000   20.863000   14.164000 H         1 <1>         0.173400 
     23 F          25.694000   24.372000   11.345000 F         1 <1>        -0.365800 
     24 C          27.610000   22.070000   17.117000 C.ar      1 <1>        -0.404600 
     25 H          28.559000   22.492000   16.811000 H         1 <1>         0.264900 
     26 C          27.366000   21.267000   18.250000 C.ar      1 <1>        -0.157900 
     27 N          26.082000   20.862000   18.277000 N.ar      1 <1>        -0.274600 
     28 C          28.374000   20.855000   19.290000 C.3       1 <1>         1.492600 
     29 F          29.576000   21.488000   19.143000 F         1 <1>        -0.454900 
     30 F          28.642000   19.516000   19.253000 F         1 <1>        -0.446300 
     31 F          27.956000   21.128000   20.562000 F         1 <1>        -0.450200 
     32 S          19.491000   21.052000   16.808000 S.o2      1 <1>         2.329800 
     33 O          18.969000   22.345000   16.398000 O.2       1 <1>        -0.945700 
     34 O          18.972000   20.395000   17.995000 O.2       1 <1>        -0.963600 
     35 N          19.301000   19.971000   15.517000 N.pl3     1 <1>        -1.034700 
     36 H          19.803000   19.099000   15.722000 H         1 <1>         0.426000 
     37 C          17.907000   19.706000   15.121000 C.3       1 <1>         0.102800 
     38 H          17.910000   19.045000   14.249000 H         1 <1>         0.074500 
     39 H          17.398000   20.633000   14.846000 H         1 <1>         0.096800 
     40 H          17.368000   19.201000   15.927000 H         1 <1>         0.053900 
@<TRIPOS>BOND
     1    1    2 ar   
     2    2    3 1    
     3    2    4 ar   
     4    4    5 1    
     5    4    6 ar   
     6    6    7 ar   
     7    7    8 1    
     8    7    9 ar   
     9    9   10 1    
    10    9    1 ar   
    11    6   11 1    
    12   11   12 ar   
    13   12   13 1    
    14   13   14 ar   
    15   14   15 1    
    16   14   16 ar   
    17   16   17 1    
    18   16   18 ar   
    19   18   19 ar   
    20   19   20 1    
    21   19   21 ar   
    22   21   22 1    
    23   21   13 ar   
    24   18   23 1    
    25   12   24 ar   
    26   24   25 1    
    27   24   26 ar   
    28   26   27 ar   
    29   27   11 ar   
    30   26   28 1    
    31   28   29 1    
    32   28   30 1    
    33   28   31 1    
    34    1   32 1    
    35   32   33 2    
    36   32   34 2    
    37   32   35 1    
    38   35   36 1    
    39   35   37 1    
    40   37   38 1    
    41   37   39 1    
    42   37   40 1    
@<TRIPOS>SUBSTRUCTURE
     1 ****        1 TEMP              0 ****  ****    0 ROOT 
@<TRIPOS>SET
UNITY_3DHIT     STATIC     ATOMS    <user>   **** Atoms matching 3D or FLEX Search
0
