#	Name:			8-2a
#	Creating user name:	jeff
#	Creation time:		Fri Dec 13 09:53:51 2002

#	Modifying user name:	jeff
#	Modification time:	Fri Dec 13 09:53:53 2002

@<TRIPOS>MOLECULE
8-2a
   37    39     1     0     1
SMALL
USER_CHARGES
****
From 3DB ct
@<TRIPOS>ATOM
      1 C          21.247000   21.193000   16.944000 C.ar      1 <1>        -0.661100 
      2 C          21.963000   20.326000   17.771000 C.ar      1 <1>         0.118300 
      3 H          21.450000   19.566000   18.357000 H         1 <1>         0.177900 
      4 C          23.355000   20.439000   17.853000 C.ar      1 <1>        -0.285000 
      5 H          23.888000   19.748000   18.506000 H         1 <1>         0.198100 
      6 C          24.045000   21.405000   17.096000 C.ar      1 <1>         0.427900 
      7 C          23.309000   22.275000   16.280000 C.ar      1 <1>        -0.377600 
      8 H          23.774000   23.081000   15.721000 H         1 <1>         0.188800 
      9 C          21.915000   22.165000   16.197000 C.ar      1 <1>         0.139800 
     10 H          21.364000   22.852000   15.559000 H         1 <1>         0.170700 
     11 N          25.471000   21.489000   17.216000 N.pl3     1 <1>        -0.140900 
     12 C          26.415000   22.145000   16.422000 C.ar      1 <1>         0.159000 
     13 C          26.213000   22.730000   15.098000 C.ar      1 <1>         0.211000 
     14 C          26.471000   24.090000   14.883000 C.ar      1 <1>        -0.304900 
     15 H          26.800000   24.727000   15.702000 H         1 <1>         0.190300 
     16 C          26.301000   24.650000   13.613000 C.ar      1 <1>         0.226700 
     17 H          26.498000   25.709000   13.463000 H         1 <1>         0.083100 
     18 C          25.883000   23.848000   12.553000 C.ar      1 <1>        -0.577500 
     19 C          25.638000   22.491000   12.750000 C.ar      1 <1>         0.238500 
     20 H          25.318000   21.860000   11.924000 H         1 <1>         0.082800 
     21 C          25.809000   21.931000   14.019000 C.ar      1 <1>        -0.345900 
     22 H          25.624000   20.867000   14.155000 H         1 <1>         0.200000 
     23 Cl         25.673000   24.538000   10.989000 Cl        1 <1>         0.122000 
     24 C          27.610000   22.060000   17.114000 C.ar      1 <1>        -0.519700 
     25 H          28.562000   22.475000   16.804000 H         1 <1>         0.274000 
     26 C          27.358000   21.263000   18.246000 C.ar      1 <1>        -0.044100 
     27 N          26.075000   20.869000   18.279000 N.ar      1 <1>        -0.205100 
     28 C          28.352000   20.846000   19.291000 C.3       1 <1>         0.980500 
     29 H          29.344000   21.269000   19.109000 H         1 <1>         0.010200 
     30 F          28.471000   19.483000   19.348000 F         1 <1>        -0.426900 
     31 F          27.947000   21.226000   20.542000 F         1 <1>        -0.433500 
     32 S          19.487000   21.029000   16.821000 S.o2      1 <1>         2.423200 
     33 O          18.924000   22.286000   16.361000 O.2       1 <1>        -0.987600 
     34 O          18.977000   20.389000   18.021000 O.2       1 <1>        -0.983700 
     35 N          19.324000   19.924000   15.573000 N.pl3     1 <1>        -1.301900 
     36 H          18.827000   20.335000   14.778000 H         1 <1>         0.484600 
     37 H          18.867000   19.067000   15.896000 H         1 <1>         0.488000 
@<TRIPOS>BOND
     1    1    2 ar   
     2    2    3 1    
     3    2    4 ar   
     4    4    5 1    
     5    4    6 ar   
     6    6    7 ar   
     7    7    8 1    
     8    7    9 ar   
     9    9   10 1    
    10    9    1 ar   
    11    6   11 1    
    12   11   12 ar   
    13   12   13 1    
    14   13   14 ar   
    15   14   15 1    
    16   14   16 ar   
    17   16   17 1    
    18   16   18 ar   
    19   18   19 ar   
    20   19   20 1    
    21   19   21 ar   
    22   21   22 1    
    23   21   13 ar   
    24   18   23 1    
    25   12   24 ar   
    26   24   25 1    
    27   24   26 ar   
    28   26   27 ar   
    29   27   11 ar   
    30   26   28 1    
    31   28   29 1    
    32   28   30 1    
    33   28   31 1    
    34    1   32 1    
    35   32   33 2    
    36   32   34 2    
    37   32   35 1    
    38   35   36 1    
    39   35   37 1    
@<TRIPOS>SUBSTRUCTURE
     1 ****        1 TEMP              0 ****  ****    0 ROOT 
@<TRIPOS>SET
UNITY_3DHIT     STATIC     ATOMS    <user>   **** Atoms matching 3D or FLEX Search
0
