#	Name:			8-2c
#	Creating user name:	jeff
#	Creation time:		Fri Dec 13 09:53:58 2002

#	Modifying user name:	jeff
#	Modification time:	Fri Dec 13 09:54:00 2002

@<TRIPOS>MOLECULE
8-2c
   38    40     1     0     1
SMALL
USER_CHARGES
****
From 3DB ct
@<TRIPOS>ATOM
      1 C          21.248000   21.194000   16.941000 C.ar      1 <1>        -0.620900 
      2 C          21.963000   20.328000   17.770000 C.ar      1 <1>         0.078100 
      3 H          21.448000   19.569000   18.354000 H         1 <1>         0.181300 
      4 C          23.355000   20.441000   17.854000 C.ar      1 <1>        -0.250100 
      5 H          23.887000   19.751000   18.508000 H         1 <1>         0.200200 
      6 C          24.046000   21.406000   17.097000 C.ar      1 <1>         0.348500 
      7 C          23.311000   22.277000   16.281000 C.ar      1 <1>        -0.342000 
      8 H          23.777000   23.082000   15.722000 H         1 <1>         0.185300 
      9 C          21.917000   22.167000   16.196000 C.ar      1 <1>         0.115300 
     10 H          21.367000   22.855000   15.556000 H         1 <1>         0.175000 
     11 N          25.471000   21.490000   17.216000 N.pl3     1 <1>         0.047000 
     12 C          26.415000   22.145000   16.423000 C.ar      1 <1>         0.012900 
     13 C          26.212000   22.729000   15.099000 C.ar      1 <1>         0.065500 
     14 C          26.470000   24.089000   14.882000 C.ar      1 <1>        -0.134800 
     15 H          26.799000   24.727000   15.701000 H         1 <1>         0.173600 
     16 C          26.298000   24.649000   13.612000 C.ar      1 <1>        -0.206200 
     17 H          26.497000   25.710000   13.468000 H         1 <1>         0.199500 
     18 C          25.877000   23.852000   12.542000 C.ar      1 <1>         0.210100 
     19 C          25.634000   22.491000   12.751000 C.ar      1 <1>        -0.221500 
     20 H          25.313000   21.854000   11.928000 H         1 <1>         0.202100 
     21 C          25.806000   21.931000   14.021000 C.ar      1 <1>        -0.141000 
     22 H          25.622000   20.867000   14.157000 H         1 <1>         0.173900 
     23 C          25.702000   24.427000   11.239000 C.1       1 <1>         0.034400 
     24 N          25.559000   24.893000   10.182000 N.1       1 <1>        -0.245500 
     25 C          27.611000   22.059000   17.114000 C.ar      1 <1>        -0.361600 
     26 H          28.564000   22.471000   16.807000 H         1 <1>         0.281900 
     27 C          27.358000   21.259000   18.244000 C.ar      1 <1>        -0.018500 
     28 N          26.076000   20.867000   18.279000 N.ar      1 <1>        -0.383100 
     29 C          28.354000   20.837000   19.282000 C.3       1 <1>         0.934800 
     30 H          27.900000   20.241000   20.079000 H         1 <1>         0.041200 
     31 F          28.963000   21.923000   19.851000 F         1 <1>        -0.430100 
     32 F          29.368000   20.106000   18.723000 F         1 <1>        -0.424300 
     33 S          19.489000   21.026000   16.820000 S.o2      1 <1>         2.415500 
     34 O          18.927000   22.285000   16.364000 O.2       1 <1>        -0.985700 
     35 O          18.980000   20.381000   18.017000 O.2       1 <1>        -0.982200 
     36 N          19.323000   19.922000   15.570000 N.pl3     1 <1>        -1.303800 
     37 H          18.820000   20.333000   14.779000 H         1 <1>         0.486400 
     38 H          18.870000   19.064000   15.895000 H         1 <1>         0.488600 
@<TRIPOS>BOND
     1    1    2 ar   
     2    2    3 1    
     3    2    4 ar   
     4    4    5 1    
     5    4    6 ar   
     6    6    7 ar   
     7    7    8 1    
     8    7    9 ar   
     9    9   10 1    
    10    9    1 ar   
    11    6   11 1    
    12   11   12 ar   
    13   12   13 1    
    14   13   14 ar   
    15   14   15 1    
    16   14   16 ar   
    17   16   17 1    
    18   16   18 ar   
    19   18   19 ar   
    20   19   20 1    
    21   19   21 ar   
    22   21   22 1    
    23   21   13 ar   
    24   18   23 1    
    25   23   24 3    
    26   12   25 ar   
    27   25   26 1    
    28   25   27 ar   
    29   27   28 ar   
    30   28   11 ar   
    31   27   29 1    
    32   29   30 1    
    33   29   31 1    
    34   29   32 1    
    35    1   33 1    
    36   33   34 2    
    37   33   35 2    
    38   33   36 1    
    39   36   37 1    
    40   36   38 1    
@<TRIPOS>SUBSTRUCTURE
     1 ****        1 TEMP              0 ****  ****    0 ROOT 
@<TRIPOS>SET
UNITY_3DHIT     STATIC     ATOMS    <user>   **** Atoms matching 3D or FLEX Search
0
