#	Name:			8-2d
#	Creating user name:	jeff
#	Creation time:		Fri Dec 13 09:54:00 2002

#	Modifying user name:	jeff
#	Modification time:	Fri Dec 13 09:54:02 2002

@<TRIPOS>MOLECULE
8-2d
   43    45     1     0     1
SMALL
USER_CHARGES
****
From 3DB ct
@<TRIPOS>ATOM
      1 C          21.248000   21.192000   16.946000 C.ar      1 <1>        -0.613500 
      2 C          21.964000   20.325000   17.773000 C.ar      1 <1>         0.082100 
      3 H          21.453000   19.564000   18.359000 H         1 <1>         0.179900 
      4 C          23.356000   20.439000   17.855000 C.ar      1 <1>        -0.247900 
      5 H          23.889000   19.748000   18.508000 H         1 <1>         0.198800 
      6 C          24.046000   21.405000   17.098000 C.ar      1 <1>         0.329200 
      7 C          23.310000   22.275000   16.282000 C.ar      1 <1>        -0.327000 
      8 H          23.775000   23.081000   15.724000 H         1 <1>         0.183800 
      9 C          21.916000   22.164000   16.199000 C.ar      1 <1>         0.105800 
     10 H          21.364000   22.851000   15.561000 H         1 <1>         0.182300 
     11 N          25.471000   21.490000   17.216000 N.pl3     1 <1>         0.057300 
     12 C          26.415000   22.145000   16.422000 C.ar      1 <1>        -0.013900 
     13 C          26.211000   22.729000   15.098000 C.ar      1 <1>         0.141200 
     14 C          26.471000   24.090000   14.882000 C.ar      1 <1>        -0.195100 
     15 H          26.803000   24.726000   15.700000 H         1 <1>         0.185400 
     16 C          26.298000   24.651000   13.613000 C.ar      1 <1>        -0.021700 
     17 H          26.499000   25.710000   13.466000 H         1 <1>         0.187600 
     18 C          25.867000   23.846000   12.555000 C.ar      1 <1>        -0.475800 
     19 C          25.630000   22.484000   12.750000 C.ar      1 <1>        -0.061800 
     20 H          25.311000   21.847000   11.928000 H         1 <1>         0.196100 
     21 C          25.805000   21.928000   14.021000 C.ar      1 <1>        -0.187100 
     22 H          25.623000   20.863000   14.160000 H         1 <1>         0.183600 
     23 S          25.666000   24.555000   10.936000 S.o2      1 <1>         2.189300 
     24 O          25.369000   25.975000   11.100000 O.2       1 <1>        -0.969100 
     25 O          24.715000   23.728000   10.200000 O.2       1 <1>        -0.971000 
     26 C          27.270000   24.384000   10.201000 C.3       1 <1>        -0.699300 
     27 H          27.228000   24.802000    9.193000 H         1 <1>         0.235800 
     28 H          27.528000   23.324000   10.152000 H         1 <1>         0.185800 
     29 H          27.997000   24.933000   10.801000 H         1 <1>         0.182700 
     30 C          27.611000   22.060000   17.113000 C.ar      1 <1>        -0.352500 
     31 H          28.564000   22.474000   16.806000 H         1 <1>         0.280000 
     32 C          27.359000   21.261000   18.244000 C.ar      1 <1>        -0.019400 
     33 N          26.077000   20.868000   18.279000 N.ar      1 <1>        -0.374200 
     34 C          28.355000   20.844000   19.283000 C.3       1 <1>         0.923900 
     35 H          27.906000   20.234000   20.072000 H         1 <1>         0.045400 
     36 F          28.945000   21.933000   19.865000 F         1 <1>        -0.427300 
     37 F          29.383000   20.134000   18.723000 F         1 <1>        -0.421500 
     38 S          19.488000   21.032000   16.814000 S.o2      1 <1>         2.414700 
     39 O          18.927000   22.287000   16.347000 O.2       1 <1>        -0.984000 
     40 O          18.973000   20.397000   18.014000 O.2       1 <1>        -0.981300 
     41 N          19.331000   19.926000   15.565000 N.pl3     1 <1>        -1.308000 
     42 H          18.838000   20.338000   14.768000 H         1 <1>         0.491000 
     43 H          18.871000   19.070000   15.887000 H         1 <1>         0.489600 
@<TRIPOS>BOND
     1    1    2 ar   
     2    2    3 1    
     3    2    4 ar   
     4    4    5 1    
     5    4    6 ar   
     6    6    7 ar   
     7    7    8 1    
     8    7    9 ar   
     9    9   10 1    
    10    9    1 ar   
    11    6   11 1    
    12   11   12 ar   
    13   12   13 1    
    14   13   14 ar   
    15   14   15 1    
    16   14   16 ar   
    17   16   17 1    
    18   16   18 ar   
    19   18   19 ar   
    20   19   20 1    
    21   19   21 ar   
    22   21   22 1    
    23   21   13 ar   
    24   18   23 1    
    25   23   24 2    
    26   23   25 2    
    27   23   26 1    
    28   26   27 1    
    29   26   28 1    
    30   26   29 1    
    31   12   30 ar   
    32   30   31 1    
    33   30   32 ar   
    34   32   33 ar   
    35   33   11 ar   
    36   32   34 1    
    37   34   35 1    
    38   34   36 1    
    39   34   37 1    
    40    1   38 1    
    41   38   39 2    
    42   38   40 2    
    43   38   41 1    
    44   41   42 1    
    45   41   43 1    
@<TRIPOS>SUBSTRUCTURE
     1 ****        1 TEMP              0 ****  ****    0 ROOT 
@<TRIPOS>SET
UNITY_3DHIT     STATIC     ATOMS    <user>   **** Atoms matching 3D or FLEX Search
0
