#	Name:			8-2e
#	Creating user name:	jeff
#	Creation time:		Fri Dec 13 09:54:02 2002

#	Modifying user name:	jeff
#	Modification time:	Fri Dec 13 09:54:04 2002

@<TRIPOS>MOLECULE
8-2e
   41    43     1     0     1
SMALL
USER_CHARGES
****
From 3DB ct
@<TRIPOS>ATOM
      1 C          21.248000   21.185000   16.948000 C.ar      1 <1>        -0.615400 
      2 C          21.965000   20.320000   17.775000 C.ar      1 <1>         0.076700 
      3 H          21.457000   19.558000   18.361000 H         1 <1>         0.179700 
      4 C          23.357000   20.436000   17.856000 C.ar      1 <1>        -0.244100 
      5 H          23.891000   19.746000   18.508000 H         1 <1>         0.198100 
      6 C          24.046000   21.403000   17.099000 C.ar      1 <1>         0.324500 
      7 C          23.309000   22.273000   16.284000 C.ar      1 <1>        -0.300500 
      8 H          23.771000   23.080000   15.725000 H         1 <1>         0.168300 
      9 C          21.915000   22.159000   16.201000 C.ar      1 <1>         0.089100 
     10 H          21.358000   22.844000   15.564000 H         1 <1>         0.182500 
     11 N          25.471000   21.490000   17.217000 N.pl3     1 <1>         0.064700 
     12 C          26.415000   22.144000   16.422000 C.ar      1 <1>        -0.003500 
     13 C          26.212000   22.728000   15.098000 C.ar      1 <1>         0.079800 
     14 C          26.467000   24.088000   14.881000 C.ar      1 <1>        -0.165800 
     15 H          26.790000   24.727000   15.703000 H         1 <1>         0.169500 
     16 C          26.297000   24.652000   13.611000 C.ar      1 <1>        -0.116800 
     17 H          26.476000   25.717000   13.492000 H         1 <1>         0.155400 
     18 C          25.885000   23.855000   12.535000 C.ar      1 <1>        -0.129000 
     19 C          25.635000   22.494000   12.751000 C.ar      1 <1>        -0.154500 
     20 H          25.313000   21.855000   11.930000 H         1 <1>         0.199200 
     21 C          25.806000   21.932000   14.021000 C.ar      1 <1>        -0.138000 
     22 H          25.619000   20.868000   14.156000 H         1 <1>         0.167700 
     23 C          25.682000   24.405000   11.163000 C.2       1 <1>         0.907500 
     24 O          25.323000   23.688000   10.232000 O.2       1 <1>        -0.652600 
     25 N          25.929000   25.732000   10.966000 N.am      1 <1>        -1.190100 
     26 H          25.806000   26.140000   10.045000 H         1 <1>         0.490400 
     27 H          26.289000   26.358000   11.676000 H         1 <1>         0.503200 
     28 C          27.611000   22.060000   17.111000 C.ar      1 <1>        -0.355900 
     29 H          28.564000   22.472000   16.803000 H         1 <1>         0.278100 
     30 C          27.359000   21.263000   18.245000 C.ar      1 <1>        -0.017300 
     31 N          26.077000   20.871000   18.281000 N.ar      1 <1>        -0.387000 
     32 C          28.356000   20.846000   19.284000 C.3       1 <1>         0.924200 
     33 H          27.905000   20.245000   20.078000 H         1 <1>         0.043900 
     34 F          28.954000   21.936000   19.857000 F         1 <1>        -0.427800 
     35 F          29.378000   20.127000   18.725000 F         1 <1>        -0.423600 
     36 S          19.488000   21.038000   16.811000 S.o2      1 <1>         2.428300 
     37 O          18.932000   22.296000   16.342000 O.2       1 <1>        -0.991000 
     38 O          18.973000   20.407000   18.012000 O.2       1 <1>        -0.986500 
     39 N          19.322000   19.939000   15.558000 N.pl3     1 <1>        -1.309300 
     40 H          18.836000   20.359000   14.761000 H         1 <1>         0.488000 
     41 H          18.852000   19.087000   15.874000 H         1 <1>         0.489900 
@<TRIPOS>BOND
     1    1    2 ar   
     2    2    3 1    
     3    2    4 ar   
     4    4    5 1    
     5    4    6 ar   
     6    6    7 ar   
     7    7    8 1    
     8    7    9 ar   
     9    9   10 1    
    10    9    1 ar   
    11    6   11 1    
    12   11   12 ar   
    13   12   13 1    
    14   13   14 ar   
    15   14   15 1    
    16   14   16 ar   
    17   16   17 1    
    18   16   18 ar   
    19   18   19 ar   
    20   19   20 1    
    21   19   21 ar   
    22   21   22 1    
    23   21   13 ar   
    24   18   23 1    
    25   23   24 2    
    26   23   25 am   
    27   25   26 1    
    28   25   27 1    
    29   12   28 ar   
    30   28   29 1    
    31   28   30 ar   
    32   30   31 ar   
    33   31   11 ar   
    34   30   32 1    
    35   32   33 1    
    36   32   34 1    
    37   32   35 1    
    38    1   36 1    
    39   36   37 2    
    40   36   38 2    
    41   36   39 1    
    42   39   40 1    
    43   39   41 1    
@<TRIPOS>SUBSTRUCTURE
     1 ****        1 TEMP              0 ****  ****    0 ROOT 
@<TRIPOS>SET
UNITY_3DHIT     STATIC     ATOMS    <user>   **** Atoms matching 3D or FLEX Search
0
