#	Name:			8-2f
#	Creating user name:	jeff
#	Creation time:		Sun Dec 22 15:52:43 2002

#	Modifying user name:	jeff
#	Modification time:	Sun Dec 22 15:52:45 2002

@<TRIPOS>MOLECULE
8-2f
   39    41     1     0     1
SMALL
USER_CHARGES
****
From 3DB ct
@<TRIPOS>ATOM
      1 C          21.248000   21.184000   16.948000 C.ar      1 <1>        -0.630300 
      2 C          21.965000   20.320000   17.775000 C.ar      1 <1>         0.088600 
      3 H          21.457000   19.557000   18.362000 H         1 <1>         0.155900 
      4 C          23.357000   20.436000   17.856000 C.ar      1 <1>        -0.274400 
      5 H          23.891000   19.746000   18.508000 H         1 <1>         0.192700 
      6 C          24.046000   21.404000   17.099000 C.ar      1 <1>         0.368100 
      7 C          23.308000   22.273000   16.284000 C.ar      1 <1>        -0.281700 
      8 H          23.770000   23.080000   15.725000 H         1 <1>         0.206000 
      9 C          21.915000   22.158000   16.201000 C.ar      1 <1>         0.070500 
     10 H          21.357000   22.843000   15.565000 H         1 <1>         0.189800 
     11 N          25.471000   21.490000   17.217000 N.pl3     1 <1>         0.018500 
     12 C          26.415000   22.145000   16.422000 C.ar      1 <1>         0.170200 
     13 C          26.211000   22.730000   15.098000 C.ar      1 <1>        -0.168100 
     14 C          26.469000   24.089000   14.881000 C.ar      1 <1>        -0.112900 
     15 H          26.798000   24.727000   15.701000 H         1 <1>         0.124800 
     16 C          26.298000   24.651000   13.611000 C.ar      1 <1>        -0.245100 
     17 H          26.499000   25.711000   13.475000 H         1 <1>         0.194200 
     18 C          25.879000   23.854000   12.538000 C.ar      1 <1>         0.171000 
     19 C          25.636000   22.491000   12.750000 C.ar      1 <1>        -0.269700 
     20 H          25.316000   21.853000   11.928000 H         1 <1>         0.198400 
     21 C          25.807000   21.932000   14.020000 C.ar      1 <1>        -0.111600 
     22 H          25.622000   20.867000   14.157000 H         1 <1>         0.124700 
     23 C          25.686000   24.405000   11.171000 C.2       1 <1>         0.702500 
     24 O          25.335000   23.769000   10.191000 O.2       1 <1>        -0.939800 
     25 O          25.943000   25.726000   11.108000 O.3       1 <1>        -0.940600 
     26 C          27.611000   22.059000   17.111000 C.ar      1 <1>        -0.432800 
     27 H          28.564000   22.471000   16.802000 H         1 <1>         0.284800 
     28 C          27.360000   21.262000   18.243000 C.ar      1 <1>        -0.012300 
     29 N          26.077000   20.871000   18.281000 N.ar      1 <1>        -0.432500 
     30 C          28.357000   20.843000   19.281000 C.3       1 <1>         0.923000 
     31 H          27.906000   20.242000   20.076000 H         1 <1>         0.028000 
     32 F          28.959000   21.931000   19.853000 F         1 <1>        -0.434000 
     33 F          29.376000   20.120000   18.720000 F         1 <1>        -0.428500 
     34 S          19.488000   21.039000   16.811000 S.o2      1 <1>         2.421000 
     35 O          18.932000   22.296000   16.342000 O.2       1 <1>        -0.998900 
     36 O          18.974000   20.406000   18.013000 O.2       1 <1>        -1.000900 
     37 N          19.321000   19.940000   15.557000 N.pl3     1 <1>        -1.322800 
     38 H          18.836000   20.362000   14.761000 H         1 <1>         0.497000 
     39 H          18.849000   19.089000   15.873000 H         1 <1>         0.485200 
@<TRIPOS>BOND
     1    1    2 ar   
     2    2    3 1    
     3    2    4 ar   
     4    4    5 1    
     5    4    6 ar   
     6    6    7 ar   
     7    7    8 1    
     8    7    9 ar   
     9    9   10 1    
    10    9    1 ar   
    11    6   11 1    
    12   11   12 ar   
    13   12   13 1    
    14   13   14 ar   
    15   14   15 1    
    16   14   16 ar   
    17   16   17 1    
    18   16   18 ar   
    19   18   19 ar   
    20   19   20 1    
    21   19   21 ar   
    22   21   22 1    
    23   21   13 ar   
    24   18   23 1    
    25   23   24 2    
    26   23   25 1    
    27   12   26 ar   
    28   26   27 1    
    29   26   28 ar   
    30   28   29 ar   
    31   29   11 ar   
    32   28   30 1    
    33   30   31 1    
    34   30   32 1    
    35   30   33 1    
    36    1   34 1    
    37   34   35 2    
    38   34   36 2    
    39   34   37 1    
    40   37   38 1    
    41   37   39 1    
@<TRIPOS>SUBSTRUCTURE
     1 ****        1 TEMP              0 ****  ****    0 ROOT 
@<TRIPOS>SET
UNITY_3DHIT     STATIC     ATOMS    <user>   **** Atoms matching 3D or FLEX Search
0
