#	Name:			8-2g
#	Creating user name:	jeff
#	Creation time:		Fri Dec 13 09:54:07 2002

#	Modifying user name:	jeff
#	Modification time:	Fri Dec 13 09:54:09 2002

@<TRIPOS>MOLECULE
8-2g
   41    43     1     0     1
SMALL
USER_CHARGES
****
From 3DB ct
@<TRIPOS>ATOM
      1 C          21.248000   21.185000   16.948000 C.ar      1 <1>        -0.620500 
      2 C          21.964000   20.320000   17.775000 C.ar      1 <1>         0.073000 
      3 H          21.457000   19.557000   18.361000 H         1 <1>         0.181100 
      4 C          23.357000   20.436000   17.855000 C.ar      1 <1>        -0.253600 
      5 H          23.891000   19.746000   18.508000 H         1 <1>         0.199000 
      6 C          24.046000   21.403000   17.099000 C.ar      1 <1>         0.364300 
      7 C          23.308000   22.272000   16.283000 C.ar      1 <1>        -0.321700 
      8 H          23.771000   23.079000   15.724000 H         1 <1>         0.184800 
      9 C          21.915000   22.158000   16.201000 C.ar      1 <1>         0.094400 
     10 H          21.358000   22.843000   15.564000 H         1 <1>         0.179100 
     11 N          25.471000   21.489000   17.217000 N.pl3     1 <1>         0.004800 
     12 C          26.415000   22.144000   16.422000 C.ar      1 <1>         0.129400 
     13 C          26.212000   22.729000   15.098000 C.ar      1 <1>        -0.202200 
     14 C          26.469000   24.087000   14.879000 C.ar      1 <1>        -0.031600 
     15 H          26.800000   24.725000   15.698000 H         1 <1>         0.167300 
     16 C          26.298000   24.651000   13.609000 C.ar      1 <1>        -0.384300 
     17 H          26.504000   25.712000   13.494000 H         1 <1>         0.182600 
     18 C          25.878000   23.860000   12.540000 C.ar      1 <1>         0.570000 
     19 C          25.637000   22.500000   12.753000 C.ar      1 <1>        -0.489700 
     20 H          25.314000   21.868000   11.927000 H         1 <1>         0.228300 
     21 C          25.807000   21.934000   14.020000 C.ar      1 <1>         0.071200 
     22 H          25.621000   20.870000   14.152000 H         1 <1>         0.144900 
     23 O          25.672000   24.285000   11.257000 O.3       1 <1>        -0.453400 
     24 C          25.898000   25.670000   10.997000 C.3       1 <1>         0.100700 
     25 H          25.684000   25.848000    9.938000 H         1 <1>         0.087700 
     26 H          26.945000   25.938000   11.176000 H         1 <1>         0.037000 
     27 H          25.220000   26.297000   11.585000 H         1 <1>         0.038700 
     28 C          27.611000   22.059000   17.112000 C.ar      1 <1>        -0.392400 
     29 H          28.564000   22.471000   16.804000 H         1 <1>         0.287600 
     30 C          27.359000   21.263000   18.245000 C.ar      1 <1>        -0.029000 
     31 N          26.076000   20.871000   18.282000 N.ar      1 <1>        -0.379600 
     32 C          28.355000   20.846000   19.284000 C.3       1 <1>         0.934100 
     33 H          27.904000   20.241000   20.076000 H         1 <1>         0.039300 
     34 F          28.950000   21.935000   19.861000 F         1 <1>        -0.429700 
     35 F          29.379000   20.130000   18.725000 F         1 <1>        -0.425500 
     36 S          19.488000   21.038000   16.812000 S.o2      1 <1>         2.425700 
     37 O          18.931000   22.296000   16.344000 O.2       1 <1>        -0.991800 
     38 O          18.973000   20.406000   18.014000 O.2       1 <1>        -0.987300 
     39 N          19.321000   19.939000   15.559000 N.pl3     1 <1>        -1.306000 
     40 H          18.835000   20.359000   14.762000 H         1 <1>         0.485300 
     41 H          18.852000   19.087000   15.875000 H         1 <1>         0.487900 
@<TRIPOS>BOND
     1    1    2 ar   
     2    2    3 1    
     3    2    4 ar   
     4    4    5 1    
     5    4    6 ar   
     6    6    7 ar   
     7    7    8 1    
     8    7    9 ar   
     9    9   10 1    
    10    9    1 ar   
    11    6   11 1    
    12   11   12 ar   
    13   12   13 1    
    14   13   14 ar   
    15   14   15 1    
    16   14   16 ar   
    17   16   17 1    
    18   16   18 ar   
    19   18   19 ar   
    20   19   20 1    
    21   19   21 ar   
    22   21   22 1    
    23   21   13 ar   
    24   18   23 1    
    25   23   24 1    
    26   24   25 1    
    27   24   26 1    
    28   24   27 1    
    29   12   28 ar   
    30   28   29 1    
    31   28   30 ar   
    32   30   31 ar   
    33   31   11 ar   
    34   30   32 1    
    35   32   33 1    
    36   32   34 1    
    37   32   35 1    
    38    1   36 1    
    39   36   37 2    
    40   36   38 2    
    41   36   39 1    
    42   39   40 1    
    43   39   41 1    
@<TRIPOS>SUBSTRUCTURE
     1 ****        1 TEMP              0 ****  ****    0 ROOT 
@<TRIPOS>SET
UNITY_3DHIT     STATIC     ATOMS    <user>   **** Atoms matching 3D or FLEX Search
0
