#	Name:			8-2h
#	Creating user name:	jeff
#	Creation time:		Fri Dec 13 09:54:09 2002

#	Modifying user name:	jeff
#	Modification time:	Fri Dec 13 09:54:11 2002

@<TRIPOS>MOLECULE
8-2h
   41    43     1     0     1
SMALL
USER_CHARGES
****
From 3DB ct
@<TRIPOS>ATOM
      1 C          21.248000   21.185000   16.949000 C.ar      1 <1>        -0.617500 
      2 C          21.965000   20.320000   17.776000 C.ar      1 <1>         0.070500 
      3 H          21.457000   19.558000   18.363000 H         1 <1>         0.183600 
      4 C          23.357000   20.436000   17.856000 C.ar      1 <1>        -0.255700 
      5 H          23.891000   19.746000   18.508000 H         1 <1>         0.201100 
      6 C          24.046000   21.403000   17.099000 C.ar      1 <1>         0.377100 
      7 C          23.308000   22.273000   16.284000 C.ar      1 <1>        -0.324800 
      8 H          23.771000   23.080000   15.726000 H         1 <1>         0.184300 
      9 C          21.915000   22.159000   16.202000 C.ar      1 <1>         0.094700 
     10 H          21.358000   22.844000   15.566000 H         1 <1>         0.179900 
     11 N          25.471000   21.489000   17.216000 N.pl3     1 <1>        -0.028700 
     12 C          26.413000   22.147000   16.423000 C.ar      1 <1>         0.195200 
     13 C          26.211000   22.732000   15.099000 C.ar      1 <1>        -0.196700 
     14 C          26.468000   24.090000   14.881000 C.ar      1 <1>        -0.265400 
     15 H          26.795000   24.734000   15.693000 H         1 <1>         0.243000 
     16 C          26.299000   24.643000   13.610000 C.ar      1 <1>         0.362300 
     17 C          25.882000   23.859000   12.531000 C.ar      1 <1>         0.321600 
     18 C          25.642000   22.500000   12.748000 C.ar      1 <1>        -0.414200 
     19 H          25.324000   21.864000   11.924000 H         1 <1>         0.235100 
     20 C          25.810000   21.937000   14.019000 C.ar      1 <1>         0.040400 
     21 H          25.625000   20.872000   14.151000 H         1 <1>         0.153400 
     22 O          25.676000   24.266000   11.240000 O.3       1 <1>        -0.381000 
     23 C          25.890000   25.644000   10.949000 C.3       1 <1>         0.041000 
     24 H          25.673000   25.796000    9.887000 H         1 <1>         0.089900 
     25 H          26.935000   25.924000   11.117000 H         1 <1>         0.072500 
     26 H          25.206000   26.279000   11.521000 H         1 <1>         0.073500 
     27 F          26.553000   25.952000   13.468000 F         1 <1>        -0.363900 
     28 C          27.610000   22.062000   17.113000 C.ar      1 <1>        -0.416200 
     29 H          28.562000   22.476000   16.807000 H         1 <1>         0.300700 
     30 C          27.359000   21.261000   18.243000 C.ar      1 <1>        -0.025000 
     31 N          26.077000   20.867000   18.278000 N.ar      1 <1>        -0.369100 
     32 C          28.355000   20.842000   19.282000 C.3       1 <1>         0.932200 
     33 H          27.905000   20.234000   20.071000 H         1 <1>         0.041000 
     34 F          28.948000   21.931000   19.862000 F         1 <1>        -0.428200 
     35 F          29.381000   20.130000   18.720000 F         1 <1>        -0.424100 
     36 S          19.488000   21.039000   16.812000 S.o2      1 <1>         2.424000 
     37 O          18.932000   22.296000   16.343000 O.2       1 <1>        -0.988900 
     38 O          18.974000   20.407000   18.014000 O.2       1 <1>        -0.985600 
     39 N          19.321000   19.940000   15.559000 N.pl3     1 <1>        -1.305700 
     40 H          18.836000   20.361000   14.762000 H         1 <1>         0.486000 
     41 H          18.850000   19.088000   15.875000 H         1 <1>         0.488000 
@<TRIPOS>BOND
     1    1    2 ar   
     2    2    3 1    
     3    2    4 ar   
     4    4    5 1    
     5    4    6 ar   
     6    6    7 ar   
     7    7    8 1    
     8    7    9 ar   
     9    9   10 1    
    10    9    1 ar   
    11    6   11 1    
    12   11   12 ar   
    13   12   13 1    
    14   13   14 ar   
    15   14   15 1    
    16   14   16 ar   
    17   16   17 ar   
    18   17   18 ar   
    19   18   19 1    
    20   18   20 ar   
    21   20   21 1    
    22   20   13 ar   
    23   17   22 1    
    24   22   23 1    
    25   23   24 1    
    26   23   25 1    
    27   23   26 1    
    28   16   27 1    
    29   12   28 ar   
    30   28   29 1    
    31   28   30 ar   
    32   30   31 ar   
    33   31   11 ar   
    34   30   32 1    
    35   32   33 1    
    36   32   34 1    
    37   32   35 1    
    38    1   36 1    
    39   36   37 2    
    40   36   38 2    
    41   36   39 1    
    42   39   40 1    
    43   39   41 1    
@<TRIPOS>SUBSTRUCTURE
     1 ****        1 TEMP              0 ****  ****    0 ROOT 
@<TRIPOS>SET
UNITY_3DHIT     STATIC     ATOMS    <user>   **** Atoms matching 3D or FLEX Search
0
