#	Name:			8-2l
#	Creating user name:	jeff
#	Creation time:		Fri Dec 13 09:54:18 2002

#	Modifying user name:	jeff
#	Modification time:	Fri Dec 13 09:54:20 2002

@<TRIPOS>MOLECULE
8-2l
   43    45     1     0     1
SMALL
USER_CHARGES
****
From 3DB ct
@<TRIPOS>ATOM
      1 C          21.237000   21.185000   16.942000 C.ar      1 <1>        -0.623800 
      2 C          21.960000   20.328000   17.770000 C.ar      1 <1>         0.064300 
      3 H          21.455000   19.565000   18.359000 H         1 <1>         0.185400 
      4 C          23.352000   20.452000   17.850000 C.ar      1 <1>        -0.261600 
      5 H          23.885000   19.764000   18.507000 H         1 <1>         0.200400 
      6 C          24.039000   21.424000   17.097000 C.ar      1 <1>         0.415900 
      7 C          23.293000   22.283000   16.279000 C.ar      1 <1>        -0.322000 
      8 H          23.742000   23.083000   15.702000 H         1 <1>         0.186700 
      9 C          21.898000   22.160000   16.195000 C.ar      1 <1>         0.085600 
     10 H          21.342000   22.839000   15.551000 H         1 <1>         0.180800 
     11 N          25.468000   21.511000   17.221000 N.pl3     1 <1>        -0.084200 
     12 C          26.427000   22.141000   16.423000 C.ar      1 <1>         0.277000 
     13 C          26.231000   22.760000   15.111000 C.ar      1 <1>        -0.282900 
     14 C          26.479000   24.129000   14.886000 C.ar      1 <1>         0.245500 
     15 C          26.292000   24.651000   13.595000 C.ar      1 <1>        -0.247100 
     16 H          26.475000   25.707000   13.397000 H         1 <1>         0.182100 
     17 C          25.858000   23.836000   12.547000 C.ar      1 <1>        -0.207500 
     18 H          25.710000   24.275000   11.560000 H         1 <1>         0.188200 
     19 C          25.630000   22.474000   12.757000 C.ar      1 <1>         0.155300 
     20 C          25.813000   21.948000   14.042000 C.ar      1 <1>        -0.195400 
     21 H          25.631000   20.887000   14.213000 H         1 <1>         0.191000 
     22 C          25.136000   21.597000   11.644000 C.3       1 <1>        -0.297600 
     23 H          25.509000   20.576000   11.764000 H         1 <1>         0.088800 
     24 H          25.491000   21.958000   10.673000 H         1 <1>         0.089400 
     25 H          24.042000   21.578000   11.637000 H         1 <1>         0.093500 
     26 C          26.945000   25.045000   15.984000 C.3       1 <1>        -0.294400 
     27 H          27.970000   24.798000   16.276000 H         1 <1>         0.092800 
     28 H          26.287000   24.968000   16.855000 H         1 <1>         0.081600 
     29 H          26.931000   26.092000   15.664000 H         1 <1>         0.092200 
     30 C          27.634000   21.974000   17.077000 C.ar      1 <1>        -0.403300 
     31 H          28.601000   22.332000   16.744000 H         1 <1>         0.292900 
     32 C          27.365000   21.198000   18.219000 C.ar      1 <1>        -0.063000 
     33 N          26.060000   20.902000   18.299000 N.ar      1 <1>        -0.358300 
     34 C          28.350000   20.707000   19.239000 C.3       1 <1>         0.972200 
     35 H          27.864000   20.106000   20.013000 H         1 <1>         0.030200 
     36 F          29.008000   21.741000   19.848000 F         1 <1>        -0.435700 
     37 F          29.334000   19.955000   18.655000 F         1 <1>        -0.433800 
     38 S          19.480000   20.998000   16.818000 S.o2      1 <1>         2.438900 
     39 O          18.902000   22.247000   16.354000 O.2       1 <1>        -0.995200 
     40 O          18.977000   20.356000   18.020000 O.2       1 <1>        -0.990800 
     41 N          19.334000   19.886000   15.573000 N.pl3     1 <1>        -1.302800 
     42 H          18.828000   20.286000   14.778000 H         1 <1>         0.482900 
     43 H          18.890000   19.024000   15.900000 H         1 <1>         0.485700 
@<TRIPOS>BOND
     1    1    2 ar   
     2    2    3 1    
     3    2    4 ar   
     4    4    5 1    
     5    4    6 ar   
     6    6    7 ar   
     7    7    8 1    
     8    7    9 ar   
     9    9   10 1    
    10    9    1 ar   
    11    6   11 1    
    12   11   12 ar   
    13   12   13 1    
    14   13   14 ar   
    15   14   15 ar   
    16   15   16 1    
    17   15   17 ar   
    18   17   18 1    
    19   17   19 ar   
    20   19   20 ar   
    21   20   21 1    
    22   20   13 ar   
    23   19   22 1    
    24   22   23 1    
    25   22   24 1    
    26   22   25 1    
    27   14   26 1    
    28   26   27 1    
    29   26   28 1    
    30   26   29 1    
    31   12   30 ar   
    32   30   31 1    
    33   30   32 ar   
    34   32   33 ar   
    35   33   11 ar   
    36   32   34 1    
    37   34   35 1    
    38   34   36 1    
    39   34   37 1    
    40    1   38 1    
    41   38   39 2    
    42   38   40 2    
    43   38   41 1    
    44   41   42 1    
    45   41   43 1    
@<TRIPOS>SUBSTRUCTURE
     1 ****        1 TEMP              0 ****  ****    0 ROOT 
@<TRIPOS>SET
UNITY_3DHIT     STATIC     ATOMS    <user>   **** Atoms matching 3D or FLEX Search
0
