#	Name:			8-2m
#	Creating user name:	jeff
#	Creation time:		Fri Dec 13 09:56:20 2002

#	Modifying user name:	jeff
#	Modification time:	Fri Dec 13 09:56:22 2002

@<TRIPOS>MOLECULE
8-2m
   37    39     1     0     1
SMALL
USER_CHARGES
****
From 3DB ct
@<TRIPOS>ATOM
      1 C          21.256000   21.177000   16.927000 C.ar      1 <1>        -0.636500 
      2 C          21.966000   20.314000   17.763000 C.ar      1 <1>         0.090900 
      3 H          21.453000   19.557000   18.351000 H         1 <1>         0.183600 
      4 C          23.359000   20.420000   17.843000 C.ar      1 <1>        -0.298300 
      5 H          23.892000   19.729000   18.495000 H         1 <1>         0.211800 
      6 C          24.051000   21.380000   17.082000 C.ar      1 <1>         0.477200 
      7 C          23.320000   22.261000   16.273000 C.ar      1 <1>        -0.393600 
      8 H          23.794000   23.071000   15.725000 H         1 <1>         0.213000 
      9 C          21.926000   22.158000   16.192000 C.ar      1 <1>         0.132400 
     10 H          21.374000   22.852000   15.561000 H         1 <1>         0.167700 
     11 N          25.474000   21.465000   17.198000 N.pl3     1 <1>        -0.202600 
     12 C          26.405000   22.171000   16.445000 C.ar      1 <1>         0.302600 
     13 C          26.223000   22.767000   15.157000 C.ar      1 <1>        -0.036200 
     14 O          26.478000   24.095000   14.927000 O.3       1 <1>        -0.181900 
     15 C          26.242000   24.348000   13.611000 C.ar      1 <1>         0.315000 
     16 C          25.857000   23.193000   12.971000 C.ar      1 <1>        -0.422700 
     17 H          25.614000   23.091000   11.921000 H         1 <1>         0.257700 
     18 C          25.858000   22.177000   13.958000 C.ar      1 <1>        -0.183900 
     19 H          25.621000   21.131000   13.809000 H         1 <1>         0.215000 
     20 C          26.447000   25.740000   13.161000 C.3       1 <1>        -0.385700 
     21 H          26.215000   25.847000   12.097000 H         1 <1>         0.126300 
     22 H          27.487000   26.043000   13.317000 H         1 <1>         0.138000 
     23 H          25.800000   26.421000   13.721000 H         1 <1>         0.136100 
     24 C          27.583000   22.138000   17.165000 C.ar      1 <1>        -0.502200 
     25 H          28.516000   22.616000   16.896000 H         1 <1>         0.288900 
     26 C          27.348000   21.271000   18.252000 C.ar      1 <1>        -0.058100 
     27 N          26.088000   20.803000   18.231000 N.ar      1 <1>        -0.214400 
     28 C          28.341000   20.854000   19.298000 C.3       1 <1>         1.027900 
     29 H          29.306000   21.353000   19.174000 H         1 <1>        -0.010400 
     30 F          28.550000   19.501000   19.272000 F         1 <1>        -0.427200 
     31 F          27.878000   21.124000   20.558000 F         1 <1>        -0.447000 
     32 S          19.488000   21.077000   16.845000 S.o2      1 <1>         2.414000 
     33 O          18.956000   22.367000   16.443000 O.2       1 <1>        -0.985900 
     34 O          18.987000   20.413000   18.036000 O.2       1 <1>        -0.983500 
     35 N          19.256000   20.023000   15.565000 N.pl3     1 <1>        -1.297600 
     36 H          18.753000   20.478000   14.799000 H         1 <1>         0.484000 
     37 H          18.780000   19.170000   15.870000 H         1 <1>         0.485500 
@<TRIPOS>BOND
     1    1    2 ar   
     2    2    3 1    
     3    2    4 ar   
     4    4    5 1    
     5    4    6 ar   
     6    6    7 ar   
     7    7    8 1    
     8    7    9 ar   
     9    9   10 1    
    10    9    1 ar   
    11    6   11 1    
    12   11   12 ar   
    13   12   13 1    
    14   13   14 ar   
    15   14   15 ar   
    16   15   16 ar   
    17   16   17 1    
    18   16   18 ar   
    19   18   19 1    
    20   18   13 ar   
    21   15   20 1    
    22   20   21 1    
    23   20   22 1    
    24   20   23 1    
    25   12   24 ar   
    26   24   25 1    
    27   24   26 ar   
    28   26   27 ar   
    29   27   11 ar   
    30   26   28 1    
    31   28   29 1    
    32   28   30 1    
    33   28   31 1    
    34    1   32 1    
    35   32   33 2    
    36   32   34 2    
    37   32   35 1    
    38   35   36 1    
    39   35   37 1    
@<TRIPOS>SUBSTRUCTURE
     1 ****        1 TEMP              0 ****  ****    0 ROOT 
@<TRIPOS>SET
UNITY_3DHIT     STATIC     ATOMS    <user>   **** Atoms matching 3D or FLEX Search
0
