#	Name:			8-2n
#	Creating user name:	jeff
#	Creation time:		Fri Dec 13 09:56:22 2002

#	Modifying user name:	jeff
#	Modification time:	Fri Dec 13 09:56:24 2002

@<TRIPOS>MOLECULE
8-2n
   40    43     1     0     1
SMALL
USER_CHARGES
****
From 3DB ct
@<TRIPOS>ATOM
      1 C          21.262000   21.176000   16.906000 C.ar      1 <1>        -0.659500 
      2 C          21.972000   20.320000   17.748000 C.ar      1 <1>         0.098700 
      3 H          21.459000   19.559000   18.332000 H         1 <1>         0.184000 
      4 C          23.363000   20.437000   17.841000 C.ar      1 <1>        -0.276100 
      5 H          23.893000   19.749000   18.499000 H         1 <1>         0.196200 
      6 C          24.058000   21.404000   17.088000 C.ar      1 <1>         0.444600 
      7 C          23.326000   22.274000   16.269000 C.ar      1 <1>        -0.321600 
      8 H          23.793000   23.084000   15.718000 H         1 <1>         0.170900 
      9 C          21.933000   22.160000   16.176000 C.ar      1 <1>         0.104200 
     10 H          21.383000   22.847000   15.536000 H         1 <1>         0.179900 
     11 N          25.482000   21.491000   17.217000 N.pl3     1 <1>        -0.244300 
     12 C          26.429000   22.149000   16.429000 C.ar      1 <1>         0.399700 
     13 C          26.232000   22.736000   15.105000 C.ar      1 <1>        -0.162100 
     14 C          25.759000   21.933000   14.043000 C.ar      1 <1>        -0.085100 
     15 H          25.564000   20.873000   14.203000 H         1 <1>         0.176100 
     16 C          25.540000   22.476000   12.772000 C.ar      1 <1>        -0.350800 
     17 H          25.182000   21.857000   11.955000 H         1 <1>         0.247000 
     18 C          25.791000   23.819000   12.598000 C.ar      1 <1>         0.305000 
     19 C          26.238000   24.611000   13.629000 C.ar      1 <1>         0.223600 
     20 C          26.464000   24.105000   14.893000 C.ar      1 <1>        -0.249700 
     21 H          26.808000   24.754000   15.692000 H         1 <1>         0.235200 
     22 O          26.416000   25.905000   13.250000 O.3       1 <1>        -0.415000 
     23 C          26.033000   25.841000   11.856000 C.3       1 <1>         0.291100 
     24 H          25.196000   26.529000   11.690000 H         1 <1>         0.098900 
     25 H          26.884000   26.160000   11.243000 H         1 <1>         0.094500 
     26 O          25.633000   24.514000   11.440000 O.3       1 <1>        -0.420000 
     27 C          27.621000   22.063000   17.125000 C.ar      1 <1>        -0.577000 
     28 H          28.574000   22.479000   16.821000 H         1 <1>         0.296300 
     29 C          27.365000   21.261000   18.254000 C.ar      1 <1>        -0.083700 
     30 N          26.082000   20.867000   18.280000 N.ar      1 <1>        -0.177300 
     31 C          28.355000   20.839000   19.299000 C.3       1 <1>         1.044700 
     32 H          29.348000   21.262000   19.123000 H         1 <1>        -0.006800 
     33 F          28.474000   19.476000   19.350000 F         1 <1>        -0.440400 
     34 F          27.947000   21.213000   20.551000 F         1 <1>        -0.447900 
     35 S          19.497000   21.063000   16.806000 S.o2      1 <1>         2.446000 
     36 O          18.961000   22.348000   16.392000 O.2       1 <1>        -0.994900 
     37 O          18.988000   20.402000   17.994000 O.2       1 <1>        -0.990800 
     38 N          19.286000   20.001000   15.528000 N.pl3     1 <1>        -1.301100 
     39 H          18.787000   20.449000   14.754000 H         1 <1>         0.482200 
     40 H          18.812000   19.147000   15.833000 H         1 <1>         0.485400 
@<TRIPOS>BOND
     1    1    2 ar   
     2    2    3 1    
     3    2    4 ar   
     4    4    5 1    
     5    4    6 ar   
     6    6    7 ar   
     7    7    8 1    
     8    7    9 ar   
     9    9   10 1    
    10    9    1 ar   
    11    6   11 1    
    12   11   12 ar   
    13   12   13 1    
    14   13   14 ar   
    15   14   15 1    
    16   14   16 ar   
    17   16   17 1    
    18   16   18 ar   
    19   18   19 ar   
    20   19   20 ar   
    21   20   21 1    
    22   20   13 ar   
    23   19   22 1    
    24   22   23 1    
    25   23   24 1    
    26   23   25 1    
    27   23   26 1    
    28   26   18 1    
    29   12   27 ar   
    30   27   28 1    
    31   27   29 ar   
    32   29   30 ar   
    33   30   11 ar   
    34   29   31 1    
    35   31   32 1    
    36   31   33 1    
    37   31   34 1    
    38    1   35 1    
    39   35   36 2    
    40   35   37 2    
    41   35   38 1    
    42   38   39 1    
    43   38   40 1    
@<TRIPOS>SUBSTRUCTURE
     1 ****        1 TEMP              0 ****  ****    0 ROOT 
@<TRIPOS>SET
UNITY_3DHIT     STATIC     ATOMS    <user>   **** Atoms matching 3D or FLEX Search
0
