#	Name:			8-2o
#	Creating user name:	jeff
#	Creation time:		Fri Dec 13 09:54:20 2002

#	Modifying user name:	jeff
#	Modification time:	Fri Dec 13 09:54:22 2002

@<TRIPOS>MOLECULE
8-2o
   37    39     1     0     1
SMALL
USER_CHARGES
****
From 3DB ct
@<TRIPOS>ATOM
      1 C          21.247000   21.193000   16.943000 C.ar      1 <1>        -0.622600 
      2 C          21.962000   20.326000   17.770000 C.ar      1 <1>         0.078000 
      3 H          21.449000   19.566000   18.356000 H         1 <1>         0.179100 
      4 C          23.354000   20.440000   17.853000 C.ar      1 <1>        -0.251500 
      5 H          23.887000   19.750000   18.507000 H         1 <1>         0.199100 
      6 C          24.045000   21.406000   17.096000 C.ar      1 <1>         0.348400 
      7 C          23.309000   22.276000   16.281000 C.ar      1 <1>        -0.335700 
      8 H          23.773000   23.081000   15.720000 H         1 <1>         0.187300 
      9 C          21.914000   22.165000   16.197000 C.ar      1 <1>         0.108200 
     10 H          21.364000   22.852000   15.557000 H         1 <1>         0.175500 
     11 N          25.471000   21.491000   17.216000 N.pl3     1 <1>         0.058400 
     12 C          26.416000   22.143000   16.422000 C.ar      1 <1>         0.004800 
     13 C          26.214000   22.729000   15.098000 C.ar      1 <1>         0.061800 
     14 C          26.473000   24.089000   14.882000 C.ar      1 <1>        -0.143800 
     15 H          26.803000   24.726000   15.702000 H         1 <1>         0.162400 
     16 C          26.300000   24.649000   13.615000 C.ar      1 <1>        -0.148300 
     17 H          26.496000   25.709000   13.457000 H         1 <1>         0.155100 
     18 C          25.880000   23.853000   12.551000 C.ar      1 <1>        -0.101300 
     19 H          25.746000   24.290000   11.563000 H         1 <1>         0.149000 
     20 C          25.636000   22.495000   12.751000 C.ar      1 <1>        -0.171100 
     21 H          25.315000   21.871000   11.919000 H         1 <1>         0.161000 
     22 C          25.808000   21.933000   14.018000 C.ar      1 <1>        -0.147400 
     23 H          25.622000   20.869000   14.153000 H         1 <1>         0.162200 
     24 C          27.612000   22.057000   17.112000 C.ar      1 <1>        -0.365000 
     25 H          28.564000   22.470000   16.802000 H         1 <1>         0.277700 
     26 C          27.358000   21.262000   18.246000 C.ar      1 <1>        -0.010000 
     27 N          26.074000   20.872000   18.281000 N.ar      1 <1>        -0.396300 
     28 C          28.352000   20.844000   19.290000 C.3       1 <1>         0.922100 
     29 H          27.904000   20.202000   20.053000 H         1 <1>         0.042300 
     30 F          28.905000   21.930000   19.914000 F         1 <1>        -0.428200 
     31 F          29.407000   20.172000   18.732000 F         1 <1>        -0.423200 
     32 S          19.487000   21.026000   16.822000 S.o2      1 <1>         2.418500 
     33 O          18.924000   22.284000   16.364000 O.2       1 <1>        -0.989900 
     34 O          18.977000   20.384000   18.021000 O.2       1 <1>        -0.984700 
     35 N          19.322000   19.922000   15.573000 N.pl3     1 <1>        -1.305100 
     36 H          18.823000   20.333000   14.780000 H         1 <1>         0.484900 
     37 H          18.867000   19.065000   15.896000 H         1 <1>         0.488400 
@<TRIPOS>BOND
     1    1    2 ar   
     2    2    3 1    
     3    2    4 ar   
     4    4    5 1    
     5    4    6 ar   
     6    6    7 ar   
     7    7    8 1    
     8    7    9 ar   
     9    9   10 1    
    10    9    1 ar   
    11    6   11 1    
    12   11   12 ar   
    13   12   13 1    
    14   13   14 ar   
    15   14   15 1    
    16   14   16 ar   
    17   16   17 1    
    18   16   18 ar   
    19   18   19 1    
    20   18   20 ar   
    21   20   21 1    
    22   20   22 ar   
    23   22   23 1    
    24   22   13 ar   
    25   12   24 ar   
    26   24   25 1    
    27   24   26 ar   
    28   26   27 ar   
    29   27   11 ar   
    30   26   28 1    
    31   28   29 1    
    32   28   30 1    
    33   28   31 1    
    34    1   32 1    
    35   32   33 2    
    36   32   34 2    
    37   32   35 1    
    38   35   36 1    
    39   35   37 1    
@<TRIPOS>SUBSTRUCTURE
     1 ****        1 TEMP              0 ****  ****    0 ROOT 
@<TRIPOS>SET
UNITY_3DHIT     STATIC     ATOMS    <user>   **** Atoms matching 3D or FLEX Search
0
