#	Name:			8-30
#	Creating user name:	jeff
#	Creation time:		Fri Dec 13 09:55:31 2002

#	Modifying user name:	jeff
#	Modification time:	Fri Dec 13 09:55:34 2002

@<TRIPOS>MOLECULE
8-30
   43    45     1     0     1
SMALL
USER_CHARGES
****
From 3DB ct
@<TRIPOS>ATOM
      1 C          21.259000   21.178000   16.931000 C.ar      1 <1>        -0.504700 
      2 C          21.968000   20.321000   17.772000 C.ar      1 <1>         0.046400 
      3 H          21.459000   19.559000   18.358000 H         1 <1>         0.177000 
      4 C          23.359000   20.439000   17.862000 C.ar      1 <1>        -0.191200 
      5 H          23.892000   19.753000   18.519000 H         1 <1>         0.185400 
      6 C          24.051000   21.404000   17.104000 C.ar      1 <1>         0.234500 
      7 C          23.318000   22.275000   16.287000 C.ar      1 <1>        -0.228700 
      8 H          23.785000   23.083000   15.733000 H         1 <1>         0.166500 
      9 C          21.926000   22.161000   16.197000 C.ar      1 <1>         0.015300 
     10 H          21.371000   22.845000   15.557000 H         1 <1>         0.176800 
     11 N          25.476000   21.488000   17.221000 N.pl3     1 <1>         0.033500 
     12 C          26.415000   22.147000   16.426000 C.ar      1 <1>         0.111100 
     13 C          26.205000   22.729000   15.101000 C.ar      1 <1>        -0.072300 
     14 C          26.462000   24.090000   14.880000 C.ar      1 <1>        -0.024100 
     15 H          26.796000   24.730000   15.696000 H         1 <1>         0.167300 
     16 C          26.282000   24.645000   13.611000 C.ar      1 <1>        -0.404500 
     17 H          26.474000   25.701000   13.440000 H         1 <1>         0.233800 
     18 C          25.857000   23.838000   12.563000 C.ar      1 <1>         0.620000 
     19 C          25.612000   22.484000   12.758000 C.ar      1 <1>        -0.417800 
     20 H          25.287000   21.866000   11.925000 H         1 <1>         0.238300 
     21 C          25.792000   21.926000   14.026000 C.ar      1 <1>        -0.058100 
     22 H          25.608000   20.862000   14.165000 H         1 <1>         0.176700 
     23 F          25.685000   24.372000   11.347000 F         1 <1>        -0.365900 
     24 C          27.611000   22.066000   17.114000 C.ar      1 <1>        -0.364400 
     25 H          28.562000   22.484000   16.805000 H         1 <1>         0.260900 
     26 C          27.369000   21.262000   18.247000 C.ar      1 <1>        -0.187000 
     27 N          26.084000   20.861000   18.277000 N.ar      1 <1>        -0.275000 
     28 C          28.380000   20.845000   19.281000 C.3       1 <1>         1.503000 
     29 F          29.565000   21.515000   19.164000 F         1 <1>        -0.457900 
     30 F          28.685000   19.515000   19.203000 F         1 <1>        -0.447000 
     31 F          27.946000   21.064000   20.558000 F         1 <1>        -0.450900 
     32 S          19.494000   21.049000   16.797000 S.o2      1 <1>         2.196100 
     33 O          18.989000   22.352000   16.394000 O.2       1 <1>        -0.909300 
     34 O          18.965000   20.408000   17.989000 O.2       1 <1>        -0.925700 
     35 N          19.269000   19.964000   15.486000 N.pl3     1 <1>        -0.695400 
     36 C          17.861000   19.892000   15.013000 C.3       1 <1>        -0.171700 
     37 H          17.803000   19.270000   14.113000 H         1 <1>         0.139500 
     38 H          17.499000   20.887000   14.740000 H         1 <1>         0.144200 
     39 H          17.212000   19.461000   15.781000 H         1 <1>         0.135500 
     40 C          19.827000   18.601000   15.695000 C.3       1 <1>        -0.261500 
     41 H          19.707000   18.009000   14.782000 H         1 <1>         0.178900 
     42 H          19.311000   18.087000   16.512000 H         1 <1>         0.147400 
     43 H          20.898000   18.645000   15.906000 H         1 <1>         0.125000 
@<TRIPOS>BOND
     1    1    2 ar   
     2    2    3 1    
     3    2    4 ar   
     4    4    5 1    
     5    4    6 ar   
     6    6    7 ar   
     7    7    8 1    
     8    7    9 ar   
     9    9   10 1    
    10    9    1 ar   
    11    6   11 1    
    12   11   12 ar   
    13   12   13 1    
    14   13   14 ar   
    15   14   15 1    
    16   14   16 ar   
    17   16   17 1    
    18   16   18 ar   
    19   18   19 ar   
    20   19   20 1    
    21   19   21 ar   
    22   21   22 1    
    23   21   13 ar   
    24   18   23 1    
    25   12   24 ar   
    26   24   25 1    
    27   24   26 ar   
    28   26   27 ar   
    29   27   11 ar   
    30   26   28 1    
    31   28   29 1    
    32   28   30 1    
    33   28   31 1    
    34    1   32 1    
    35   32   33 2    
    36   32   34 2    
    37   32   35 1    
    38   35   36 1    
    39   36   37 1    
    40   36   38 1    
    41   36   39 1    
    42   35   40 1    
    43   40   41 1    
    44   40   42 1    
    45   40   43 1    
@<TRIPOS>SUBSTRUCTURE
     1 ****        1 TEMP              0 ****  ****    0 ROOT 
@<TRIPOS>SET
UNITY_3DHIT     STATIC     ATOMS    <user>   **** Atoms matching 3D or FLEX Search
0
