#	Name:			8-31
#	Creating user name:	jeff
#	Creation time:		Fri Dec 13 09:55:34 2002

#	Modifying user name:	jeff
#	Modification time:	Fri Dec 13 09:55:36 2002

@<TRIPOS>MOLECULE
8-31
   40    42     1     0     1
SMALL
USER_CHARGES
****
From 3DB ct
@<TRIPOS>ATOM
      1 C          21.206000   21.131000   16.900000 C.ar      1 <1>         0.440400 
      2 C          21.932000   20.304000   17.753000 C.ar      1 <1>        -0.266300 
      3 H          21.445000   19.550000   18.365000 H         1 <1>         0.211600 
      4 C          23.326000   20.428000   17.847000 C.ar      1 <1>        -0.082800 
      5 H          23.855000   19.748000   18.513000 H         1 <1>         0.183200 
      6 C          24.017000   21.393000   17.095000 C.ar      1 <1>         0.087800 
      7 C          23.277000   22.258000   16.284000 C.ar      1 <1>        -0.166900 
      8 H          23.732000   23.076000   15.735000 H         1 <1>         0.161500 
      9 C          21.883000   22.129000   16.195000 C.ar      1 <1>        -0.262800 
     10 H          21.336000   22.827000   15.563000 H         1 <1>         0.226200 
     11 N          25.441000   21.487000   17.220000 N.pl3     1 <1>         0.143100 
     12 C          26.385000   22.142000   16.426000 C.ar      1 <1>         0.074100 
     13 C          26.184000   22.727000   15.102000 C.ar      1 <1>        -0.071600 
     14 C          26.442000   24.088000   14.886000 C.ar      1 <1>        -0.020900 
     15 H          26.770000   24.727000   15.705000 H         1 <1>         0.167300 
     16 C          26.274000   24.646000   13.616000 C.ar      1 <1>        -0.426000 
     17 H          26.466000   25.702000   13.448000 H         1 <1>         0.234600 
     18 C          25.859000   23.840000   12.563000 C.ar      1 <1>         0.630000 
     19 C          25.614000   22.485000   12.753000 C.ar      1 <1>        -0.430700 
     20 H          25.297000   21.869000   11.917000 H         1 <1>         0.244400 
     21 C          25.781000   21.926000   14.022000 C.ar      1 <1>        -0.028600 
     22 H          25.596000   20.861000   14.159000 H         1 <1>         0.176100 
     23 F          25.698000   24.376000   11.345000 F         1 <1>        -0.369000 
     24 C          27.580000   22.061000   17.118000 C.ar      1 <1>        -0.382200 
     25 H          28.531000   22.475000   16.808000 H         1 <1>         0.265900 
     26 C          27.331000   21.266000   18.256000 C.ar      1 <1>        -0.193300 
     27 N          26.044000   20.874000   18.288000 N.ar      1 <1>        -0.315200 
     28 C          28.337000   20.855000   19.297000 C.3       1 <1>         1.523200 
     29 F          29.569000   21.409000   19.095000 F         1 <1>        -0.464500 
     30 F          28.530000   19.502000   19.330000 F         1 <1>        -0.451300 
     31 F          27.960000   21.218000   20.560000 F         1 <1>        -0.456300 
     32 N          19.782000   21.109000   16.812000 N.pl3     1 <1>        -1.229100 
     33 H          19.289000   21.977000   17.044000 H         1 <1>         0.492000 
     34 S          18.949000   20.192000   15.680000 S.o2      1 <1>         2.401500 
     35 O          19.827000   19.828000   14.580000 O.2       1 <1>        -0.991200 
     36 O          17.718000   20.918000   15.396000 O.2       1 <1>        -0.986400 
     37 C          18.517000   18.742000   16.619000 C.3       1 <1>        -0.784400 
     38 H          17.910000   18.098000   15.979000 H         1 <1>         0.236400 
     39 H          17.937000   19.047000   17.492000 H         1 <1>         0.243900 
     40 H          19.424000   18.216000   16.916000 H         1 <1>         0.236100 
@<TRIPOS>BOND
     1    1    2 ar   
     2    2    3 1    
     3    2    4 ar   
     4    4    5 1    
     5    4    6 ar   
     6    6    7 ar   
     7    7    8 1    
     8    7    9 ar   
     9    9   10 1    
    10    9    1 ar   
    11    6   11 1    
    12   11   12 ar   
    13   12   13 1    
    14   13   14 ar   
    15   14   15 1    
    16   14   16 ar   
    17   16   17 1    
    18   16   18 ar   
    19   18   19 ar   
    20   19   20 1    
    21   19   21 ar   
    22   21   22 1    
    23   21   13 ar   
    24   18   23 1    
    25   12   24 ar   
    26   24   25 1    
    27   24   26 ar   
    28   26   27 ar   
    29   27   11 ar   
    30   26   28 1    
    31   28   29 1    
    32   28   30 1    
    33   28   31 1    
    34    1   32 1    
    35   32   33 1    
    36   32   34 1    
    37   34   35 2    
    38   34   36 2    
    39   34   37 1    
    40   37   38 1    
    41   37   39 1    
    42   37   40 1    
@<TRIPOS>SUBSTRUCTURE
     1 ****        1 TEMP              0 ****  ****    0 ROOT 
@<TRIPOS>SET
UNITY_3DHIT     STATIC     ATOMS    <user>   **** Atoms matching 3D or FLEX Search
0
