#	Name:			8-32
#	Creating user name:	jeff
#	Creation time:		Fri Dec 13 09:55:36 2002

#	Modifying user name:	jeff
#	Modification time:	Fri Dec 13 09:55:38 2002

@<TRIPOS>MOLECULE
8-32
   34    36     1     0     1
SMALL
USER_CHARGES
****
From 3DB ct
@<TRIPOS>ATOM
      1 C          21.217000   21.183000   16.922000 C.ar      1 <1>         0.059200 
      2 C          21.931000   20.319000   17.758000 C.ar      1 <1>        -0.176300 
      3 H          21.428000   19.554000   18.346000 H         1 <1>         0.235500 
      4 C          23.324000   20.434000   17.845000 C.ar      1 <1>        -0.093500 
      5 H          23.854000   19.744000   18.500000 H         1 <1>         0.183300 
      6 C          24.018000   21.400000   17.091000 C.ar      1 <1>         0.143100 
      7 C          23.285000   22.271000   16.273000 C.ar      1 <1>        -0.164900 
      8 H          23.752000   23.078000   15.719000 H         1 <1>         0.158800 
      9 C          21.890000   22.162000   16.183000 C.ar      1 <1>        -0.158200 
     10 H          21.352000   22.855000   15.540000 H         1 <1>         0.232000 
     11 N          25.442000   21.485000   17.216000 N.pl3     1 <1>         0.091200 
     12 C          26.388000   22.142000   16.427000 C.ar      1 <1>         0.085200 
     13 C          26.190000   22.726000   15.101000 C.ar      1 <1>        -0.066200 
     14 C          26.448000   24.087000   14.886000 C.ar      1 <1>        -0.017600 
     15 H          26.777000   24.725000   15.705000 H         1 <1>         0.166300 
     16 C          26.278000   24.645000   13.616000 C.ar      1 <1>        -0.418000 
     17 H          26.471000   25.700000   13.448000 H         1 <1>         0.237200 
     18 C          25.862000   23.839000   12.564000 C.ar      1 <1>         0.630900 
     19 C          25.617000   22.484000   12.754000 C.ar      1 <1>        -0.425900 
     20 H          25.299000   21.867000   11.918000 H         1 <1>         0.243000 
     21 C          25.786000   21.925000   14.022000 C.ar      1 <1>        -0.053200 
     22 H          25.602000   20.860000   14.159000 H         1 <1>         0.176100 
     23 F          25.699000   24.374000   11.347000 F         1 <1>        -0.365700 
     24 C          27.580000   22.061000   17.124000 C.ar      1 <1>        -0.365200 
     25 H          28.533000   22.477000   16.820000 H         1 <1>         0.263400 
     26 C          27.328000   21.264000   18.259000 C.ar      1 <1>        -0.174200 
     27 N          26.043000   20.864000   18.281000 N.ar      1 <1>        -0.298000 
     28 C          28.330000   20.850000   19.303000 C.3       1 <1>         1.489800 
     29 F          29.484000   21.580000   19.247000 F         1 <1>        -0.454200 
     30 F          28.701000   19.541000   19.177000 F         1 <1>        -0.442400 
     31 F          27.854000   20.993000   20.576000 F         1 <1>        -0.446500 
     32 N          19.756000   21.070000   16.828000 N.2       1 <1>         0.751900 
     33 O          19.185000   20.197000   17.509000 O.2       1 <1>        -0.509500 
     34 O          19.150000   21.852000   16.071000 O.3       1 <1>        -0.517400 
@<TRIPOS>BOND
     1    1    2 ar   
     2    2    3 1    
     3    2    4 ar   
     4    4    5 1    
     5    4    6 ar   
     6    6    7 ar   
     7    7    8 1    
     8    7    9 ar   
     9    9   10 1    
    10    9    1 ar   
    11    6   11 1    
    12   11   12 ar   
    13   12   13 1    
    14   13   14 ar   
    15   14   15 1    
    16   14   16 ar   
    17   16   17 1    
    18   16   18 ar   
    19   18   19 ar   
    20   19   20 1    
    21   19   21 ar   
    22   21   22 1    
    23   21   13 ar   
    24   18   23 1    
    25   12   24 ar   
    26   24   25 1    
    27   24   26 ar   
    28   26   27 ar   
    29   27   11 ar   
    30   26   28 1    
    31   28   29 1    
    32   28   30 1    
    33   28   31 1    
    34    1   32 1    
    35   32   33 2    
    36   32   34 1    
@<TRIPOS>SUBSTRUCTURE
     1 ****        1 TEMP              0 ****  ****    0 ROOT 
@<TRIPOS>SET
UNITY_3DHIT     STATIC     ATOMS    <user>   **** Atoms matching 3D or FLEX Search
0
@<TRIPOS>UNITY_ATOM_ATTR
32 1
AtomExpr +1
