#	Name:			8-33
#	Creating user name:	jeff
#	Creation time:		Fri Dec 13 09:55:38 2002

#	Modifying user name:	jeff
#	Modification time:	Fri Dec 13 09:55:40 2002

@<TRIPOS>MOLECULE
8-33
   37    39     1     0     1
SMALL
USER_CHARGES
****
From 3DB ct
@<TRIPOS>ATOM
      1 C          21.203000   21.165000   16.936000 C.ar      1 <1>        -0.020500 
      2 C          21.938000   20.312000   17.765000 C.ar      1 <1>        -0.285400 
      3 H          21.466000   19.538000   18.366000 H         1 <1>         0.227500 
      4 C          23.333000   20.432000   17.849000 C.ar      1 <1>        -0.038100 
      5 H          23.866000   19.744000   18.504000 H         1 <1>         0.171000 
      6 C          24.025000   21.397000   17.096000 C.ar      1 <1>         0.167500 
      7 C          23.287000   22.262000   16.283000 C.ar      1 <1>        -0.261000 
      8 H          23.745000   23.071000   15.725000 H         1 <1>         0.166800 
      9 C          21.892000   22.142000   16.201000 C.ar      1 <1>        -0.032700 
     10 H          21.350000   22.835000   15.558000 H         1 <1>         0.187300 
     11 N          25.449000   21.487000   17.218000 N.pl3     1 <1>         0.069200 
     12 C          26.392000   22.145000   16.426000 C.ar      1 <1>         0.133500 
     13 C          26.190000   22.728000   15.101000 C.ar      1 <1>        -0.083100 
     14 C          26.447000   24.090000   14.884000 C.ar      1 <1>        -0.007100 
     15 H          26.774000   24.729000   15.703000 H         1 <1>         0.163800 
     16 C          26.279000   24.645000   13.614000 C.ar      1 <1>        -0.424200 
     17 H          26.471000   25.701000   13.444000 H         1 <1>         0.237100 
     18 C          25.865000   23.838000   12.561000 C.ar      1 <1>         0.630400 
     19 C          25.619000   22.483000   12.753000 C.ar      1 <1>        -0.424900 
     20 H          25.303000   21.866000   11.917000 H         1 <1>         0.241500 
     21 C          25.787000   21.926000   14.022000 C.ar      1 <1>        -0.048800 
     22 H          25.603000   20.861000   14.160000 H         1 <1>         0.173900 
     23 F          25.704000   24.372000   11.343000 F         1 <1>        -0.367200 
     24 C          27.586000   22.064000   17.119000 C.ar      1 <1>        -0.404800 
     25 H          28.538000   22.480000   16.811000 H         1 <1>         0.268800 
     26 C          27.338000   21.263000   18.252000 C.ar      1 <1>        -0.156900 
     27 N          26.053000   20.866000   18.281000 N.ar      1 <1>        -0.311700 
     28 C          28.344000   20.846000   19.292000 C.3       1 <1>         1.501700 
     29 F          29.546000   21.482000   19.152000 F         1 <1>        -0.458500 
     30 F          28.614000   19.508000   19.247000 F         1 <1>        -0.446300 
     31 F          27.922000   21.110000   20.565000 F         1 <1>        -0.450800 
     32 C          19.714000   21.086000   16.805000 C.2       1 <1>         0.164700 
     33 O          19.138000   21.883000   16.050000 O.2       1 <1>        -0.366200 
     34 C          18.975000   20.027000   17.610000 C.3       1 <1>         1.520800 
     35 F          19.362000   18.750000   17.307000 F         1 <1>        -0.478600 
     36 F          17.620000   20.055000   17.404000 F         1 <1>        -0.482700 
     37 F          19.140000   20.162000   18.962000 F         1 <1>        -0.475800 
@<TRIPOS>BOND
     1    1    2 ar   
     2    2    3 1    
     3    2    4 ar   
     4    4    5 1    
     5    4    6 ar   
     6    6    7 ar   
     7    7    8 1    
     8    7    9 ar   
     9    9   10 1    
    10    9    1 ar   
    11    6   11 1    
    12   11   12 ar   
    13   12   13 1    
    14   13   14 ar   
    15   14   15 1    
    16   14   16 ar   
    17   16   17 1    
    18   16   18 ar   
    19   18   19 ar   
    20   19   20 1    
    21   19   21 ar   
    22   21   22 1    
    23   21   13 ar   
    24   18   23 1    
    25   12   24 ar   
    26   24   25 1    
    27   24   26 ar   
    28   26   27 ar   
    29   27   11 ar   
    30   26   28 1    
    31   28   29 1    
    32   28   30 1    
    33   28   31 1    
    34    1   32 1    
    35   32   33 2    
    36   32   34 1    
    37   34   35 1    
    38   34   36 1    
    39   34   37 1    
@<TRIPOS>SUBSTRUCTURE
     1 ****        1 TEMP              0 ****  ****    0 ROOT 
@<TRIPOS>SET
UNITY_3DHIT     STATIC     ATOMS    <user>   **** Atoms matching 3D or FLEX Search
0
