#	Name:			8-34
#	Creating user name:	jeff
#	Creation time:		Fri Dec 13 09:55:40 2002

#	Modifying user name:	jeff
#	Modification time:	Fri Dec 13 09:55:41 2002

@<TRIPOS>MOLECULE
8-34
   32    34     1     0     1
SMALL
USER_CHARGES
****
From 3DB ct
@<TRIPOS>ATOM
      1 C          21.177000   21.184000   16.910000 C.ar      1 <1>        -0.156400 
      2 H          20.094000   21.102000   16.838000 H         1 <1>         0.151400 
      3 C          21.889000   20.325000   17.742000 C.ar      1 <1>        -0.128200 
      4 H          21.363000   19.568000   18.322000 H         1 <1>         0.157700 
      5 C          23.279000   20.434000   17.836000 C.ar      1 <1>        -0.114500 
      6 H          23.805000   19.742000   18.493000 H         1 <1>         0.160300 
      7 C          23.977000   21.399000   17.086000 C.ar      1 <1>         0.149100 
      8 C          23.246000   22.269000   16.267000 C.ar      1 <1>        -0.226200 
      9 H          23.713000   23.074000   15.710000 H         1 <1>         0.164900 
     10 C          21.854000   22.156000   16.178000 C.ar      1 <1>        -0.096500 
     11 H          21.296000   22.840000   15.540000 H         1 <1>         0.146300 
     12 N          25.401000   21.483000   17.215000 N.pl3     1 <1>         0.069600 
     13 C          26.353000   22.136000   16.429000 C.ar      1 <1>         0.074600 
     14 C          26.163000   22.721000   15.104000 C.ar      1 <1>         0.062100 
     15 C          26.421000   24.082000   14.891000 C.ar      1 <1>        -0.137100 
     16 H          26.741000   24.720000   15.713000 H         1 <1>         0.158600 
     17 C          26.263000   24.641000   13.620000 C.ar      1 <1>        -0.160200 
     18 H          26.459000   25.700000   13.465000 H         1 <1>         0.154800 
     19 C          25.856000   23.843000   12.552000 C.ar      1 <1>        -0.098800 
     20 H          25.733000   24.279000   11.562000 H         1 <1>         0.144500 
     21 C          25.613000   22.485000   12.751000 C.ar      1 <1>        -0.162300 
     22 H          25.302000   21.860000   11.915000 H         1 <1>         0.157700 
     23 C          25.770000   21.924000   14.020000 C.ar      1 <1>        -0.161900 
     24 H          25.585000   20.859000   14.153000 H         1 <1>         0.166700 
     25 C          27.543000   22.050000   17.129000 C.ar      1 <1>        -0.378500 
     26 H          28.498000   22.462000   16.827000 H         1 <1>         0.253600 
     27 C          27.284000   21.254000   18.263000 C.ar      1 <1>        -0.203400 
     28 N          25.997000   20.862000   18.284000 N.ar      1 <1>        -0.292000 
     29 C          28.282000   20.837000   19.311000 C.3       1 <1>         1.518500 
     30 F          29.478000   21.486000   19.192000 F         1 <1>        -0.463900 
     31 F          28.567000   19.502000   19.254000 F         1 <1>        -0.452600 
     32 F          27.843000   21.081000   20.581000 F         1 <1>        -0.457900 
@<TRIPOS>BOND
     1    2    1 1    
     2    1    3 ar   
     3    3    4 1    
     4    3    5 ar   
     5    5    6 1    
     6    5    7 ar   
     7    7    8 ar   
     8    8    9 1    
     9    8   10 ar   
    10   10   11 1    
    11   10    1 ar   
    12    7   12 1    
    13   12   13 ar   
    14   13   14 1    
    15   14   15 ar   
    16   15   16 1    
    17   15   17 ar   
    18   17   18 1    
    19   17   19 ar   
    20   19   20 1    
    21   19   21 ar   
    22   21   22 1    
    23   21   23 ar   
    24   23   24 1    
    25   23   14 ar   
    26   13   25 ar   
    27   25   26 1    
    28   25   27 ar   
    29   27   28 ar   
    30   28   12 ar   
    31   27   29 1    
    32   29   30 1    
    33   29   31 1    
    34   29   32 1    
@<TRIPOS>SUBSTRUCTURE
     1 ****        2 TEMP              0 ****  ****    0 ROOT 
@<TRIPOS>SET
UNITY_3DHIT     STATIC     ATOMS    <user>   **** Atoms matching 3D or FLEX Search
0
