#	Name:			8-35
#	Creating user name:	jeff
#	Creation time:		Fri Dec 13 09:55:42 2002

#	Modifying user name:	jeff
#	Modification time:	Fri Dec 13 09:55:43 2002

@<TRIPOS>MOLECULE
8-35
   32    34     1     0     1
SMALL
USER_CHARGES
****
From 3DB ct
@<TRIPOS>ATOM
      1 C          21.245000   21.181000   16.932000 C.ar      1 <1>        -0.659500 
      2 C          21.958000   20.323000   17.763000 C.ar      1 <1>         0.280700 
      3 H          21.445000   19.563000   18.347000 H         1 <1>         0.083000 
      4 C          23.350000   20.437000   17.850000 C.ar      1 <1>        -0.306000 
      5 H          23.881000   19.747000   18.505000 H         1 <1>         0.194800 
      6 C          24.042000   21.403000   17.096000 C.ar      1 <1>         0.370800 
      7 C          23.305000   22.272000   16.280000 C.ar      1 <1>        -0.429400 
      8 H          23.767000   23.079000   15.723000 H         1 <1>         0.189000 
      9 C          21.912000   22.156000   16.195000 C.ar      1 <1>         0.322000 
     10 H          21.358000   22.841000   15.557000 H         1 <1>         0.071600 
     11 N          25.466000   21.489000   17.217000 N.pl3     1 <1>        -0.023600 
     12 C          26.410000   22.146000   16.424000 C.ar      1 <1>         0.066000 
     13 C          26.208000   22.729000   15.100000 C.ar      1 <1>         0.234700 
     14 C          26.466000   24.090000   14.882000 C.ar      1 <1>        -0.294300 
     15 H          26.795000   24.728000   15.701000 H         1 <1>         0.187100 
     16 C          26.295000   24.648000   13.612000 C.ar      1 <1>         0.222900 
     17 H          26.491000   25.707000   13.461000 H         1 <1>         0.082700 
     18 C          25.876000   23.845000   12.553000 C.ar      1 <1>        -0.577600 
     19 C          25.632000   22.488000   12.752000 C.ar      1 <1>         0.225900 
     20 H          25.312000   21.856000   11.927000 H         1 <1>         0.087700 
     21 C          25.803000   21.930000   14.022000 C.ar      1 <1>        -0.342500 
     22 H          25.618000   20.865000   14.159000 H         1 <1>         0.198900 
     23 Cl         25.665000   24.533000   10.989000 Cl        1 <1>         0.123100 
     24 C          27.605000   22.062000   17.116000 C.ar      1 <1>        -0.394900 
     25 H          28.557000   22.477000   16.808000 H         1 <1>         0.255600 
     26 C          27.356000   21.262000   18.250000 C.ar      1 <1>        -0.135900 
     27 N          26.070000   20.868000   18.279000 N.ar      1 <1>        -0.285200 
     28 C          28.362000   20.844000   19.289000 C.3       1 <1>         1.452100 
     29 F          29.561000   21.486000   19.156000 F         1 <1>        -0.446100 
     30 F          28.639000   19.508000   19.236000 F         1 <1>        -0.437500 
     31 F          27.937000   21.097000   20.563000 F         1 <1>        -0.443900 
     32 Cl         19.533000   21.044000   16.824000 Cl        1 <1>         0.127700 
@<TRIPOS>BOND
     1    1    2 ar   
     2    2    3 1    
     3    2    4 ar   
     4    4    5 1    
     5    4    6 ar   
     6    6    7 ar   
     7    7    8 1    
     8    7    9 ar   
     9    9   10 1    
    10    9    1 ar   
    11    6   11 1    
    12   11   12 ar   
    13   12   13 1    
    14   13   14 ar   
    15   14   15 1    
    16   14   16 ar   
    17   16   17 1    
    18   16   18 ar   
    19   18   19 ar   
    20   19   20 1    
    21   19   21 ar   
    22   21   22 1    
    23   21   13 ar   
    24   18   23 1    
    25   12   24 ar   
    26   24   25 1    
    27   24   26 ar   
    28   26   27 ar   
    29   27   11 ar   
    30   26   28 1    
    31   28   29 1    
    32   28   30 1    
    33   28   31 1    
    34    1   32 1    
@<TRIPOS>SUBSTRUCTURE
     1 ****        1 TEMP              0 ****  ****    0 ROOT 
@<TRIPOS>SET
UNITY_3DHIT     STATIC     ATOMS    <user>   **** Atoms matching 3D or FLEX Search
0
