#	Name:			8-36
#	Creating user name:	jeff
#	Creation time:		Fri Dec 13 09:55:43 2002

#	Modifying user name:	jeff
#	Modification time:	Fri Dec 13 09:55:45 2002

@<TRIPOS>MOLECULE
8-36
   40    42     1     0     1
SMALL
USER_CHARGES
****
From 3DB ct
@<TRIPOS>ATOM
      1 C          21.201000   21.148000   16.945000 C.ar      1 <1>         0.503000 
      2 C          21.932000   20.298000   17.771000 C.ar      1 <1>        -0.356400 
      3 H          21.456000   19.525000   18.369000 H         1 <1>         0.187400 
      4 C          23.326000   20.421000   17.854000 C.ar      1 <1>        -0.022300 
      5 H          23.861000   19.733000   18.508000 H         1 <1>         0.167500 
      6 C          24.013000   21.388000   17.100000 C.ar      1 <1>        -0.089700 
      7 C          23.271000   22.251000   16.289000 C.ar      1 <1>         0.002400 
      8 H          23.724000   23.061000   15.728000 H         1 <1>         0.142400 
      9 C          21.878000   22.124000   16.211000 C.ar      1 <1>        -0.421800 
     10 H          21.319000   22.808000   15.574000 H         1 <1>         0.219600 
     11 N          25.438000   21.482000   17.220000 N.pl3     1 <1>         0.194400 
     12 C          26.378000   22.142000   16.427000 C.ar      1 <1>         0.034500 
     13 C          26.174000   22.724000   15.103000 C.ar      1 <1>        -0.087700 
     14 C          26.430000   24.082000   14.881000 C.ar      1 <1>        -0.062700 
     15 H          26.759000   24.722000   15.699000 H         1 <1>         0.171600 
     16 C          26.259000   24.644000   13.610000 C.ar      1 <1>        -0.380700 
     17 H          26.465000   25.705000   13.493000 H         1 <1>         0.181000 
     18 C          25.841000   23.850000   12.542000 C.ar      1 <1>         0.551100 
     19 C          25.600000   22.491000   12.757000 C.ar      1 <1>        -0.469600 
     20 H          25.280000   21.856000   11.932000 H         1 <1>         0.226700 
     21 C          25.770000   21.927000   14.026000 C.ar      1 <1>         0.017600 
     22 H          25.585000   20.863000   14.160000 H         1 <1>         0.157900 
     23 O          25.637000   24.272000   11.258000 O.3       1 <1>        -0.454300 
     24 C          25.864000   25.656000   10.994000 C.3       1 <1>         0.103600 
     25 H          25.654000   25.832000    9.935000 H         1 <1>         0.086600 
     26 H          26.910000   25.925000   11.176000 H         1 <1>         0.035700 
     27 H          25.184000   26.285000   11.579000 H         1 <1>         0.037700 
     28 C          27.573000   22.066000   17.119000 C.ar      1 <1>        -0.349700 
     29 H          28.523000   22.486000   16.811000 H         1 <1>         0.254600 
     30 C          27.328000   21.268000   18.256000 C.ar      1 <1>        -0.246000 
     31 N          26.044000   20.866000   18.285000 N.ar      1 <1>        -0.294500 
     32 C          28.336000   20.860000   19.297000 C.3       1 <1>         1.523500 
     33 F          29.539000   21.489000   19.146000 F         1 <1>        -0.465600 
     34 F          28.601000   19.520000   19.268000 F         1 <1>        -0.452600 
     35 F          27.919000   21.141000   20.568000 F         1 <1>        -0.456300 
     36 O          19.845000   21.135000   16.775000 O.3       1 <1>        -0.450100 
     37 C          19.117000   20.147000   17.502000 C.3       1 <1>         0.097800 
     38 H          18.058000   20.265000   17.254000 H         1 <1>         0.086900 
     39 H          19.225000   20.295000   18.582000 H         1 <1>         0.038200 
     40 H          19.419000   19.137000   17.206000 H         1 <1>         0.038300 
@<TRIPOS>BOND
     1    1    2 ar   
     2    2    3 1    
     3    2    4 ar   
     4    4    5 1    
     5    4    6 ar   
     6    6    7 ar   
     7    7    8 1    
     8    7    9 ar   
     9    9   10 1    
    10    9    1 ar   
    11    6   11 1    
    12   11   12 ar   
    13   12   13 1    
    14   13   14 ar   
    15   14   15 1    
    16   14   16 ar   
    17   16   17 1    
    18   16   18 ar   
    19   18   19 ar   
    20   19   20 1    
    21   19   21 ar   
    22   21   22 1    
    23   21   13 ar   
    24   18   23 1    
    25   23   24 1    
    26   24   25 1    
    27   24   26 1    
    28   24   27 1    
    29   12   28 ar   
    30   28   29 1    
    31   28   30 ar   
    32   30   31 ar   
    33   31   11 ar   
    34   30   32 1    
    35   32   33 1    
    36   32   34 1    
    37   32   35 1    
    38    1   36 1    
    39   36   37 1    
    40   37   38 1    
    41   37   39 1    
    42   37   40 1    
@<TRIPOS>SUBSTRUCTURE
     1 ****        1 TEMP              0 ****  ****    0 ROOT 
@<TRIPOS>SET
UNITY_3DHIT     STATIC     ATOMS    <user>   **** Atoms matching 3D or FLEX Search
0
