#	Name:			8-37
#	Creating user name:	jeff
#	Creation time:		Fri Dec 13 09:55:46 2002

#	Modifying user name:	jeff
#	Modification time:	Fri Dec 13 09:55:47 2002

@<TRIPOS>MOLECULE
8-37
   36    38     1     0     1
SMALL
USER_CHARGES
****
From 3DB ct
@<TRIPOS>ATOM
      1 C          21.244000   21.181000   16.933000 C.ar      1 <1>        -0.646600 
      2 C          21.958000   20.323000   17.764000 C.ar      1 <1>         0.263700 
      3 H          21.444000   19.563000   18.348000 H         1 <1>         0.085800 
      4 C          23.349000   20.438000   17.852000 C.ar      1 <1>        -0.298600 
      5 H          23.880000   19.748000   18.508000 H         1 <1>         0.192600 
      6 C          24.041000   21.404000   17.097000 C.ar      1 <1>         0.371700 
      7 C          23.305000   22.273000   16.282000 C.ar      1 <1>        -0.384600 
      8 H          23.767000   23.080000   15.724000 H         1 <1>         0.176700 
      9 C          21.912000   22.156000   16.196000 C.ar      1 <1>         0.291000 
     10 H          21.357000   22.841000   15.558000 H         1 <1>         0.078200 
     11 N          25.466000   21.490000   17.218000 N.pl3     1 <1>        -0.075000 
     12 C          26.410000   22.146000   16.425000 C.ar      1 <1>         0.230600 
     13 C          26.208000   22.729000   15.100000 C.ar      1 <1>        -0.196200 
     14 C          26.465000   24.087000   14.880000 C.ar      1 <1>        -0.008800 
     15 H          26.794000   24.726000   15.698000 H         1 <1>         0.158200 
     16 C          26.295000   24.649000   13.608000 C.ar      1 <1>        -0.399800 
     17 H          26.500000   25.710000   13.492000 H         1 <1>         0.182300 
     18 C          25.876000   23.855000   12.540000 C.ar      1 <1>         0.575900 
     19 C          25.635000   22.496000   12.755000 C.ar      1 <1>        -0.475100 
     20 H          25.315000   21.862000   11.929000 H         1 <1>         0.228400 
     21 C          25.805000   21.932000   14.023000 C.ar      1 <1>         0.037500 
     22 H          25.620000   20.868000   14.156000 H         1 <1>         0.152400 
     23 O          25.672000   24.278000   11.256000 O.3       1 <1>        -0.457200 
     24 C          25.906000   25.661000   10.991000 C.3       1 <1>         0.086800 
     25 H          25.696000   25.837000    9.932000 H         1 <1>         0.093200 
     26 H          26.953000   25.924000   11.173000 H         1 <1>         0.040500 
     27 H          25.229000   26.293000   11.576000 H         1 <1>         0.043500 
     28 C          27.605000   22.061000   17.116000 C.ar      1 <1>        -0.424900 
     29 H          28.557000   22.474000   16.807000 H         1 <1>         0.264900 
     30 C          27.357000   21.260000   18.249000 C.ar      1 <1>        -0.169000 
     31 N          26.070000   20.866000   18.279000 N.ar      1 <1>        -0.272900 
     32 C          28.366000   20.838000   19.283000 C.3       1 <1>         1.481200 
     33 F          29.506000   21.591000   19.249000 F         1 <1>        -0.453600 
     34 F          28.762000   19.541000   19.121000 F         1 <1>        -0.444600 
     35 F          27.887000   20.936000   20.559000 F         1 <1>        -0.450200 
     36 Cl         19.533000   21.043000   16.822000 Cl        1 <1>         0.121700 
@<TRIPOS>BOND
     1    1    2 ar   
     2    2    3 1    
     3    2    4 ar   
     4    4    5 1    
     5    4    6 ar   
     6    6    7 ar   
     7    7    8 1    
     8    7    9 ar   
     9    9   10 1    
    10    9    1 ar   
    11    6   11 1    
    12   11   12 ar   
    13   12   13 1    
    14   13   14 ar   
    15   14   15 1    
    16   14   16 ar   
    17   16   17 1    
    18   16   18 ar   
    19   18   19 ar   
    20   19   20 1    
    21   19   21 ar   
    22   21   22 1    
    23   21   13 ar   
    24   18   23 1    
    25   23   24 1    
    26   24   25 1    
    27   24   26 1    
    28   24   27 1    
    29   12   28 ar   
    30   28   29 1    
    31   28   30 ar   
    32   30   31 ar   
    33   31   11 ar   
    34   30   32 1    
    35   32   33 1    
    36   32   34 1    
    37   32   35 1    
    38    1   36 1    
@<TRIPOS>SUBSTRUCTURE
     1 ****        1 TEMP              0 ****  ****    0 ROOT 
@<TRIPOS>SET
UNITY_3DHIT     STATIC     ATOMS    <user>   **** Atoms matching 3D or FLEX Search
0
