#	Name:			8-38
#	Creating user name:	jeff
#	Creation time:		Fri Dec 13 09:55:48 2002

#	Modifying user name:	jeff
#	Modification time:	Fri Dec 13 09:55:49 2002

@<TRIPOS>MOLECULE
8-38
   36    38     1     0     1
SMALL
USER_CHARGES
****
From 3DB ct
@<TRIPOS>ATOM
      1 C          21.202000   21.148000   16.944000 C.ar      1 <1>         0.499600 
      2 C          21.932000   20.298000   17.771000 C.ar      1 <1>        -0.343500 
      3 H          21.456000   19.525000   18.369000 H         1 <1>         0.184900 
      4 C          23.326000   20.422000   17.854000 C.ar      1 <1>        -0.027700 
      5 H          23.861000   19.734000   18.508000 H         1 <1>         0.170300 
      6 C          24.014000   21.389000   17.101000 C.ar      1 <1>        -0.098400 
      7 C          23.271000   22.252000   16.289000 C.ar      1 <1>        -0.036100 
      8 H          23.725000   23.063000   15.729000 H         1 <1>         0.152500 
      9 C          21.878000   22.124000   16.211000 C.ar      1 <1>        -0.396900 
     10 H          21.319000   22.808000   15.573000 H         1 <1>         0.214800 
     11 N          25.438000   21.483000   17.221000 N.pl3     1 <1>         0.255400 
     12 C          26.378000   22.143000   16.427000 C.ar      1 <1>        -0.137600 
     13 C          26.173000   22.725000   15.103000 C.ar      1 <1>         0.338800 
     14 C          26.430000   24.086000   14.884000 C.ar      1 <1>        -0.341600 
     15 H          26.759000   24.725000   15.701000 H         1 <1>         0.200200 
     16 C          26.258000   24.643000   13.613000 C.ar      1 <1>         0.230400 
     17 H          26.455000   25.701000   13.461000 H         1 <1>         0.082700 
     18 C          25.840000   23.839000   12.555000 C.ar      1 <1>        -0.586500 
     19 C          25.596000   22.482000   12.755000 C.ar      1 <1>         0.223200 
     20 H          25.276000   21.849000   11.931000 H         1 <1>         0.088100 
     21 C          25.768000   21.924000   14.025000 C.ar      1 <1>        -0.355800 
     22 H          25.584000   20.860000   14.164000 H         1 <1>         0.203100 
     23 Cl         25.628000   24.525000   10.990000 Cl        1 <1>         0.120100 
     24 C          27.574000   22.066000   17.118000 C.ar      1 <1>        -0.317400 
     25 H          28.524000   22.485000   16.810000 H         1 <1>         0.245600 
     26 C          27.329000   21.268000   18.255000 C.ar      1 <1>        -0.213600 
     27 N          26.045000   20.867000   18.284000 N.ar      1 <1>        -0.308800 
     28 C          28.336000   20.858000   19.295000 C.3       1 <1>         1.493000 
     29 F          29.541000   21.485000   19.144000 F         1 <1>        -0.457800 
     30 F          28.599000   19.518000   19.266000 F         1 <1>        -0.445200 
     31 F          27.920000   21.140000   20.566000 F         1 <1>        -0.449500 
     32 O          19.846000   21.135000   16.773000 O.3       1 <1>        -0.450200 
     33 C          19.117000   20.150000   17.505000 C.3       1 <1>         0.093200 
     34 H          18.058000   20.269000   17.258000 H         1 <1>         0.091000 
     35 H          19.227000   20.302000   18.584000 H         1 <1>         0.040300 
     36 H          19.418000   19.139000   17.212000 H         1 <1>         0.039200 
@<TRIPOS>BOND
     1    1    2 ar   
     2    2    3 1    
     3    2    4 ar   
     4    4    5 1    
     5    4    6 ar   
     6    6    7 ar   
     7    7    8 1    
     8    7    9 ar   
     9    9   10 1    
    10    9    1 ar   
    11    6   11 1    
    12   11   12 ar   
    13   12   13 1    
    14   13   14 ar   
    15   14   15 1    
    16   14   16 ar   
    17   16   17 1    
    18   16   18 ar   
    19   18   19 ar   
    20   19   20 1    
    21   19   21 ar   
    22   21   22 1    
    23   21   13 ar   
    24   18   23 1    
    25   12   24 ar   
    26   24   25 1    
    27   24   26 ar   
    28   26   27 ar   
    29   27   11 ar   
    30   26   28 1    
    31   28   29 1    
    32   28   30 1    
    33   28   31 1    
    34    1   32 1    
    35   32   33 1    
    36   33   34 1    
    37   33   35 1    
    38   33   36 1    
@<TRIPOS>SUBSTRUCTURE
     1 ****        1 TEMP              0 ****  ****    0 ROOT 
@<TRIPOS>SET
UNITY_3DHIT     STATIC     ATOMS    <user>   **** Atoms matching 3D or FLEX Search
0
