#	Name:			8-39
#	Creating user name:	jeff
#	Creation time:		Fri Dec 13 09:55:50 2002

#	Modifying user name:	jeff
#	Modification time:	Fri Dec 13 09:55:52 2002

@<TRIPOS>MOLECULE
8-39
   38    40     1     0     1
SMALL
USER_CHARGES
****
From 3DB ct
@<TRIPOS>ATOM
      1 C          21.250000   21.188000   16.945000 C.ar      1 <1>        -0.508900 
      2 C          21.965000   20.321000   17.771000 C.ar      1 <1>        -0.020600 
      3 H          21.457000   19.557000   18.356000 H         1 <1>         0.196100 
      4 C          23.357000   20.436000   17.854000 C.ar      1 <1>        -0.163000 
      5 H          23.890000   19.745000   18.506000 H         1 <1>         0.183500 
      6 C          24.047000   21.403000   17.098000 C.ar      1 <1>         0.225500 
      7 C          23.311000   22.273000   16.282000 C.ar      1 <1>        -0.250700 
      8 H          23.775000   23.079000   15.723000 H         1 <1>         0.166000 
      9 C          21.917000   22.160000   16.198000 C.ar      1 <1>         0.016900 
     10 H          21.366000   22.846000   15.557000 H         1 <1>         0.186400 
     11 N          25.472000   21.490000   17.217000 N.pl3     1 <1>         0.050300 
     12 C          26.414000   22.147000   16.423000 C.ar      1 <1>         0.114700 
     13 C          26.211000   22.730000   15.099000 C.ar      1 <1>        -0.080700 
     14 C          26.469000   24.092000   14.883000 C.ar      1 <1>        -0.005800 
     15 H          26.797000   24.730000   15.701000 H         1 <1>         0.164300 
     16 C          26.300000   24.649000   13.613000 C.ar      1 <1>        -0.418600 
     17 H          26.492000   25.705000   13.444000 H         1 <1>         0.237200 
     18 C          25.884000   23.843000   12.560000 C.ar      1 <1>         0.628700 
     19 C          25.639000   22.488000   12.751000 C.ar      1 <1>        -0.425600 
     20 H          25.321000   21.871000   11.915000 H         1 <1>         0.240300 
     21 C          25.807000   21.929000   14.020000 C.ar      1 <1>        -0.054000 
     22 H          25.623000   20.865000   14.156000 H         1 <1>         0.172400 
     23 F          25.724000   24.377000   11.342000 F         1 <1>        -0.366700 
     24 C          27.610000   22.064000   17.113000 C.ar      1 <1>        -0.371900 
     25 H          28.561000   22.480000   16.804000 H         1 <1>         0.262400 
     26 C          27.364000   21.264000   18.248000 C.ar      1 <1>        -0.183500 
     27 N          26.078000   20.868000   18.278000 N.ar      1 <1>        -0.282800 
     28 C          28.371000   20.848000   19.286000 C.3       1 <1>         1.500600 
     29 F          29.584000   21.457000   19.123000 F         1 <1>        -0.456800 
     30 F          28.615000   19.504000   19.267000 F         1 <1>        -0.446000 
     31 F          27.966000   21.146000   20.557000 F         1 <1>        -0.449300 
     32 S          19.483000   21.037000   16.817000 S.o2      1 <1>         2.146100 
     33 O          18.948000   22.332000   16.409000 O.2       1 <1>        -0.959500 
     34 O          18.994000   20.445000   18.059000 O.2       1 <1>        -0.954400 
     35 C          19.253000   19.878000   15.495000 C.3       1 <1>        -0.692800 
     36 H          18.180000   19.733000   15.354000 H         1 <1>         0.238000 
     37 H          19.724000   18.931000   15.766000 H         1 <1>         0.183100 
     38 H          19.696000   20.286000   14.584000 H         1 <1>         0.179100 
@<TRIPOS>BOND
     1    1    2 ar   
     2    2    3 1    
     3    2    4 ar   
     4    4    5 1    
     5    4    6 ar   
     6    6    7 ar   
     7    7    8 1    
     8    7    9 ar   
     9    9   10 1    
    10    9    1 ar   
    11    6   11 1    
    12   11   12 ar   
    13   12   13 1    
    14   13   14 ar   
    15   14   15 1    
    16   14   16 ar   
    17   16   17 1    
    18   16   18 ar   
    19   18   19 ar   
    20   19   20 1    
    21   19   21 ar   
    22   21   22 1    
    23   21   13 ar   
    24   18   23 1    
    25   12   24 ar   
    26   24   25 1    
    27   24   26 ar   
    28   26   27 ar   
    29   27   11 ar   
    30   26   28 1    
    31   28   29 1    
    32   28   30 1    
    33   28   31 1    
    34    1   32 1    
    35   32   33 2    
    36   32   34 2    
    37   32   35 1    
    38   35   36 1    
    39   35   37 1    
    40   35   38 1    
@<TRIPOS>SUBSTRUCTURE
     1 ****        1 TEMP              0 ****  ****    0 ROOT 
@<TRIPOS>SET
UNITY_3DHIT     STATIC     ATOMS    <user>   **** Atoms matching 3D or FLEX Search
0
