#	Name:			8-3a
#	Creating user name:	jeff
#	Creation time:		Fri Dec 13 09:54:22 2002

#	Modifying user name:	jeff
#	Modification time:	Fri Dec 13 09:54:24 2002

@<TRIPOS>MOLECULE
8-3a
   40    42     1     0     1
SMALL
USER_CHARGES
****
From 3DB ct
@<TRIPOS>ATOM
      1 C          21.249000   21.185000   16.949000 C.ar      1 <1>        -0.632000 
      2 C          21.965000   20.321000   17.776000 C.ar      1 <1>         0.057600 
      3 H          21.458000   19.558000   18.363000 H         1 <1>         0.186500 
      4 C          23.358000   20.438000   17.857000 C.ar      1 <1>        -0.198900 
      5 H          23.892000   19.748000   18.510000 H         1 <1>         0.188000 
      6 C          24.047000   21.405000   17.100000 C.ar      1 <1>         0.322900 
      7 C          23.309000   22.274000   16.286000 C.ar      1 <1>        -0.313300 
      8 H          23.771000   23.082000   15.727000 H         1 <1>         0.163000 
      9 C          21.915000   22.159000   16.203000 C.ar      1 <1>         0.108200 
     10 H          21.358000   22.844000   15.566000 H         1 <1>         0.177500 
     11 N          25.472000   21.491000   17.217000 N.pl3     1 <1>        -0.004800 
     12 C          26.413000   22.146000   16.422000 C.ar      1 <1>         0.128500 
     13 C          26.211000   22.730000   15.098000 C.ar      1 <1>        -0.059100 
     14 C          26.469000   24.092000   14.883000 C.ar      1 <1>        -0.016900 
     15 H          26.796000   24.730000   15.702000 H         1 <1>         0.164600 
     16 C          26.300000   24.650000   13.613000 C.ar      1 <1>        -0.423300 
     17 H          26.493000   25.705000   13.445000 H         1 <1>         0.234700 
     18 C          25.885000   23.843000   12.560000 C.ar      1 <1>         0.627200 
     19 C          25.639000   22.489000   12.750000 C.ar      1 <1>        -0.432400 
     20 H          25.322000   21.872000   11.914000 H         1 <1>         0.239700 
     21 C          25.807000   21.930000   14.019000 C.ar      1 <1>        -0.048000 
     22 H          25.623000   20.865000   14.155000 H         1 <1>         0.170400 
     23 F          25.724000   24.379000   11.342000 F         1 <1>        -0.369700 
     24 C          27.608000   22.060000   17.112000 C.ar      1 <1>        -0.434500 
     25 H          28.561000   22.473000   16.804000 H         1 <1>         0.255400 
     26 C          27.362000   21.258000   18.246000 C.ar      1 <1>         0.024400 
     27 N          26.076000   20.869000   18.277000 N.ar      1 <1>        -0.337200 
     28 C          28.352000   20.855000   19.257000 C.2       1 <1>         0.915300 
     29 O          28.084000   20.130000   20.214000 O.2       1 <1>        -0.602300 
     30 O          29.599000   21.372000   19.020000 O.3       1 <1>        -0.468500 
     31 C          30.586000   21.003000   19.986000 C.3       1 <1>        -0.001600 
     32 H          31.532000   21.470000   19.698000 H         1 <1>         0.100100 
     33 H          30.723000   19.918000   19.997000 H         1 <1>         0.081800 
     34 H          30.306000   21.370000   20.978000 H         1 <1>         0.076800 
     35 S          19.489000   21.037000   16.810000 S.o2      1 <1>         2.432600 
     36 O          18.932000   22.294000   16.341000 O.2       1 <1>        -0.993400 
     37 O          18.974000   20.404000   18.012000 O.2       1 <1>        -0.986500 
     38 N          19.325000   19.938000   15.557000 N.pl3     1 <1>        -1.306400 
     39 H          18.839000   20.358000   14.760000 H         1 <1>         0.484800 
     40 H          18.856000   19.085000   15.873000 H         1 <1>         0.488500 
@<TRIPOS>BOND
     1    1    2 ar   
     2    2    3 1    
     3    2    4 ar   
     4    4    5 1    
     5    4    6 ar   
     6    6    7 ar   
     7    7    8 1    
     8    7    9 ar   
     9    9   10 1    
    10    9    1 ar   
    11    6   11 1    
    12   11   12 ar   
    13   12   13 1    
    14   13   14 ar   
    15   14   15 1    
    16   14   16 ar   
    17   16   17 1    
    18   16   18 ar   
    19   18   19 ar   
    20   19   20 1    
    21   19   21 ar   
    22   21   22 1    
    23   21   13 ar   
    24   18   23 1    
    25   12   24 ar   
    26   24   25 1    
    27   24   26 ar   
    28   26   27 ar   
    29   27   11 ar   
    30   26   28 1    
    31   28   29 2    
    32   28   30 1    
    33   30   31 1    
    34   31   32 1    
    35   31   33 1    
    36   31   34 1    
    37    1   35 1    
    38   35   36 2    
    39   35   37 2    
    40   35   38 1    
    41   38   39 1    
    42   38   40 1    
@<TRIPOS>SUBSTRUCTURE
     1 ****        1 TEMP              0 ****  ****    0 ROOT 
@<TRIPOS>SET
UNITY_3DHIT     STATIC     ATOMS    <user>   **** Atoms matching 3D or FLEX Search
0
