#	Name:			8-8a
#	Creating user name:	jeff
#	Creation time:		Fri Dec 13 09:54:25 2002

#	Modifying user name:	jeff
#	Modification time:	Fri Dec 13 09:54:27 2002

@<TRIPOS>MOLECULE
8-8a
   37    39     1     0     1
SMALL
USER_CHARGES
****
From 3DB ct
@<TRIPOS>ATOM
      1 C          21.246000   21.184000   16.950000 C.ar      1 <1>        -0.663300 
      2 C          21.964000   20.319000   17.775000 C.ar      1 <1>         0.078400 
      3 H          21.457000   19.557000   18.363000 H         1 <1>         0.181800 
      4 C          23.356000   20.436000   17.854000 C.ar      1 <1>        -0.288400 
      5 H          23.892000   19.746000   18.506000 H         1 <1>         0.204300 
      6 C          24.044000   21.404000   17.097000 C.ar      1 <1>         0.501600 
      7 C          23.305000   22.272000   16.282000 C.ar      1 <1>        -0.413100 
      8 H          23.767000   23.078000   15.721000 H         1 <1>         0.196100 
      9 C          21.912000   22.158000   16.202000 C.ar      1 <1>         0.146900 
     10 H          21.354000   22.842000   15.565000 H         1 <1>         0.168100 
     11 N          25.470000   21.491000   17.215000 N.pl3     1 <1>        -0.160800 
     12 C          26.416000   22.144000   16.421000 C.ar      1 <1>         0.069700 
     13 C          26.215000   22.730000   15.097000 C.ar      1 <1>         0.163800 
     14 C          26.473000   24.090000   14.882000 C.ar      1 <1>        -0.188800 
     15 H          26.803000   24.727000   15.701000 H         1 <1>         0.171400 
     16 C          26.301000   24.650000   13.614000 C.ar      1 <1>        -0.146500 
     17 H          26.497000   25.709000   13.456000 H         1 <1>         0.154400 
     18 C          25.882000   23.853000   12.550000 C.ar      1 <1>        -0.119500 
     19 H          25.749000   24.290000   11.562000 H         1 <1>         0.149400 
     20 C          25.638000   22.495000   12.750000 C.ar      1 <1>        -0.148000 
     21 H          25.317000   21.871000   11.918000 H         1 <1>         0.156600 
     22 C          25.809000   21.934000   14.018000 C.ar      1 <1>        -0.211800 
     23 H          25.623000   20.869000   14.153000 H         1 <1>         0.174900 
     24 C          27.612000   22.057000   17.111000 C.ar      1 <1>        -0.572700 
     25 H          28.565000   22.467000   16.802000 H         1 <1>         0.275200 
     26 C          27.351000   21.266000   18.240000 C.ar      1 <1>         0.441000 
     27 N          26.076000   20.875000   18.282000 N.ar      1 <1>        -0.410100 
     28 C          28.307000   20.831000   19.288000 C.3       1 <1>        -0.344100 
     29 H          28.539000   19.767000   19.173000 H         1 <1>         0.113100 
     30 H          27.886000   20.988000   20.286000 H         1 <1>         0.109800 
     31 H          29.244000   21.393000   19.224000 H         1 <1>         0.101400 
     32 S          19.485000   21.036000   16.815000 S.o2      1 <1>         2.435000 
     33 O          18.941000   22.247000   16.228000 O.2       1 <1>        -0.997400 
     34 O          18.959000   20.522000   18.067000 O.2       1 <1>        -0.991500 
     35 N          19.321000   19.825000   15.669000 N.pl3     1 <1>        -1.304100 
     36 H          18.843000   20.172000   14.834000 H         1 <1>         0.482800 
     37 H          18.843000   19.009000   16.061000 H         1 <1>         0.484400 
@<TRIPOS>BOND
     1    1    2 ar   
     2    2    3 1    
     3    2    4 ar   
     4    4    5 1    
     5    4    6 ar   
     6    6    7 ar   
     7    7    8 1    
     8    7    9 ar   
     9    9   10 1    
    10    9    1 ar   
    11    6   11 1    
    12   11   12 ar   
    13   12   13 1    
    14   13   14 ar   
    15   14   15 1    
    16   14   16 ar   
    17   16   17 1    
    18   16   18 ar   
    19   18   19 1    
    20   18   20 ar   
    21   20   21 1    
    22   20   22 ar   
    23   22   23 1    
    24   22   13 ar   
    25   12   24 ar   
    26   24   25 1    
    27   24   26 ar   
    28   26   27 ar   
    29   27   11 ar   
    30   26   28 1    
    31   28   29 1    
    32   28   30 1    
    33   28   31 1    
    34    1   32 1    
    35   32   33 2    
    36   32   34 2    
    37   32   35 1    
    38   35   36 1    
    39   35   37 1    
@<TRIPOS>SUBSTRUCTURE
     1 ****        1 TEMP              0 ****  ****    0 ROOT 
@<TRIPOS>SET
UNITY_3DHIT     STATIC     ATOMS    <user>   **** Atoms matching 3D or FLEX Search
0
