#	Name:			8-9b
#	Creating user name:	jeff
#	Creation time:		Fri Dec 13 09:54:27 2002

#	Modifying user name:	jeff
#	Modification time:	Fri Dec 13 09:54:29 2002

@<TRIPOS>MOLECULE
8-9b
   41    44     1     0     1
SMALL
USER_CHARGES
****
From 3DB ct
@<TRIPOS>ATOM
      1 C          21.247000   21.188000   16.949000 C.ar      1 <1>        -0.638700 
      2 C          21.965000   20.322000   17.775000 C.ar      1 <1>         0.108700 
      3 H          21.456000   19.560000   18.362000 H         1 <1>         0.171300 
      4 C          23.357000   20.438000   17.856000 C.ar      1 <1>        -0.306600 
      5 H          23.891000   19.748000   18.508000 H         1 <1>         0.216800 
      6 C          24.046000   21.405000   17.098000 C.ar      1 <1>         0.424800 
      7 C          23.308000   22.274000   16.283000 C.ar      1 <1>        -0.394500 
      8 H          23.770000   23.081000   15.724000 H         1 <1>         0.198200 
      9 C          21.914000   22.161000   16.202000 C.ar      1 <1>         0.130700 
     10 H          21.359000   22.846000   15.564000 H         1 <1>         0.170200 
     11 N          25.471000   21.491000   17.216000 N.pl3     1 <1>        -0.018300 
     12 C          26.414000   22.145000   16.421000 C.ar      1 <1>        -0.039900 
     13 C          26.212000   22.730000   15.098000 C.ar      1 <1>         0.275200 
     14 C          26.471000   24.091000   14.883000 C.ar      1 <1>        -0.302700 
     15 H          26.799000   24.728000   15.702000 H         1 <1>         0.190300 
     16 C          26.301000   24.650000   13.613000 C.ar      1 <1>         0.213400 
     17 H          26.499000   25.709000   13.463000 H         1 <1>         0.086200 
     18 C          25.885000   23.849000   12.552000 C.ar      1 <1>        -0.582700 
     19 C          25.640000   22.491000   12.749000 C.ar      1 <1>         0.220300 
     20 H          25.321000   21.860000   11.923000 H         1 <1>         0.084600 
     21 C          25.809000   21.931000   14.018000 C.ar      1 <1>        -0.331700 
     22 H          25.624000   20.867000   14.154000 H         1 <1>         0.195500 
     23 Cl         25.677000   24.538000   10.989000 Cl        1 <1>         0.122500 
     24 C          27.609000   22.058000   17.113000 C.ar      1 <1>        -0.408200 
     25 H          28.557000   22.474000   16.796000 H         1 <1>         0.249600 
     26 C          27.351000   21.262000   18.241000 C.ar      1 <1>         0.255200 
     27 N          26.074000   20.872000   18.277000 N.ar      1 <1>        -0.394800 
     28 C          28.339000   20.845000   19.277000 C.ar      1 <1>        -0.161100 
     29 S          29.988000   21.323000   19.268000 S.3       1 <1>         0.380300 
     30 C          30.301000   20.456000   20.685000 C.ar      1 <1>        -0.735000 
     31 C          29.203000   19.805000   21.182000 C.ar      1 <1>         0.105400 
     32 H          29.208000   19.200000   22.081000 H         1 <1>         0.137600 
     33 C          28.056000   20.032000   20.360000 C.ar      1 <1>        -0.136200 
     34 H          27.079000   19.610000   20.568000 H         1 <1>         0.189700 
     35 Cl         31.884000   20.458000   21.353000 Cl        1 <1>         0.214000 
     36 S          19.488000   21.033000   16.815000 S.o2      1 <1>         2.412800 
     37 O          18.921000   22.308000   16.411000 O.2       1 <1>        -0.987800 
     38 O          18.980000   20.340000   17.986000 O.2       1 <1>        -0.983200 
     39 N          19.326000   19.991000   15.513000 N.pl3     1 <1>        -1.307800 
     40 H          18.832000   20.443000   14.739000 H         1 <1>         0.486600 
     41 H          18.866000   19.120000   15.792000 H         1 <1>         0.489600 
@<TRIPOS>BOND
     1    1    2 ar   
     2    2    3 1    
     3    2    4 ar   
     4    4    5 1    
     5    4    6 ar   
     6    6    7 ar   
     7    7    8 1    
     8    7    9 ar   
     9    9   10 1    
    10    9    1 ar   
    11    6   11 1    
    12   11   12 ar   
    13   12   13 1    
    14   13   14 ar   
    15   14   15 1    
    16   14   16 ar   
    17   16   17 1    
    18   16   18 ar   
    19   18   19 ar   
    20   19   20 1    
    21   19   21 ar   
    22   21   22 1    
    23   21   13 ar   
    24   18   23 1    
    25   12   24 ar   
    26   24   25 1    
    27   24   26 ar   
    28   26   27 ar   
    29   27   11 ar   
    30   26   28 1    
    31   28   29 ar   
    32   29   30 ar   
    33   30   31 ar   
    34   31   32 1    
    35   31   33 ar   
    36   33   34 1    
    37   33   28 ar   
    38   30   35 1    
    39    1   36 1    
    40   36   37 2    
    41   36   38 2    
    42   36   39 1    
    43   39   40 1    
    44   39   41 1    
@<TRIPOS>SUBSTRUCTURE
     1 ****        1 TEMP              0 ****  ****    0 ROOT 
@<TRIPOS>SET
UNITY_3DHIT     STATIC     ATOMS    <user>   **** Atoms matching 3D or FLEX Search
0
