#	Name:			8-celecoxib
#	Creating user name:	jeff
#	Creation time:		Fri Dec 13 09:55:52 2002

#	Modifying user name:	jeff
#	Modification time:	Fri Dec 13 09:55:54 2002

@<TRIPOS>MOLECULE
8-celecoxib
   40    42     1     0     1
SMALL
USER_CHARGES
****
From 3DB ct
@<TRIPOS>ATOM
      1 C          21.250000   21.169000   16.924000 C.ar      1 <1>        -0.630600 
      2 C          21.965000   20.314000   17.763000 C.ar      1 <1>         0.069600 
      3 H          21.455000   19.552000   18.350000 H         1 <1>         0.185700 
      4 C          23.356000   20.433000   17.849000 C.ar      1 <1>        -0.219500 
      5 H          23.889000   19.745000   18.505000 H         1 <1>         0.188800 
      6 C          24.046000   21.400000   17.093000 C.ar      1 <1>         0.330400 
      7 C          23.308000   22.269000   16.277000 C.ar      1 <1>        -0.305200 
      8 H          23.771000   23.077000   15.720000 H         1 <1>         0.168500 
      9 C          21.915000   22.153000   16.191000 C.ar      1 <1>         0.108400 
     10 H          21.361000   22.840000   15.553000 H         1 <1>         0.177000 
     11 N          25.471000   21.490000   17.215000 N.pl3     1 <1>        -0.009900 
     12 C          26.415000   22.146000   16.423000 C.ar      1 <1>         0.160100 
     13 C          26.213000   22.731000   15.099000 C.ar      1 <1>        -0.042800 
     14 C          26.473000   24.089000   14.881000 C.ar      1 <1>        -0.079300 
     15 H          26.807000   24.726000   15.699000 H         1 <1>         0.155400 
     16 C          26.302000   24.648000   13.611000 C.ar      1 <1>        -0.291600 
     17 H          26.510000   25.708000   13.466000 H         1 <1>         0.193900 
     18 C          25.870000   23.858000   12.540000 C.ar      1 <1>         0.255300 
     19 C          25.640000   22.494000   12.751000 C.ar      1 <1>        -0.296600 
     20 H          25.328000   21.854000   11.926000 H         1 <1>         0.198300 
     21 C          25.811000   21.934000   14.020000 C.ar      1 <1>        -0.120800 
     22 H          25.630000   20.868000   14.155000 H         1 <1>         0.165700 
     23 C          25.718000   24.451000   11.170000 C.3       1 <1>        -0.336400 
     24 H          24.934000   23.936000   10.606000 H         1 <1>         0.096400 
     25 H          26.662000   24.369000   10.621000 H         1 <1>         0.106400 
     26 H          25.434000   25.507000   11.231000 H         1 <1>         0.097700 
     27 C          27.609000   22.064000   17.116000 C.ar      1 <1>        -0.404300 
     28 H          28.561000   22.480000   16.809000 H         1 <1>         0.265600 
     29 C          27.360000   21.267000   18.252000 C.ar      1 <1>        -0.159100 
     30 N          26.074000   20.872000   18.281000 N.ar      1 <1>        -0.289000 
     31 C          28.364000   20.855000   19.295000 C.3       1 <1>         1.496800 
     32 F          29.592000   21.424000   19.105000 F         1 <1>        -0.456800 
     33 F          28.571000   19.505000   19.314000 F         1 <1>        -0.446700 
     34 F          27.978000   21.202000   20.559000 F         1 <1>        -0.452700 
     35 S          19.484000   21.045000   16.834000 S.o2      1 <1>         2.426000 
     36 O          18.931000   22.325000   16.425000 O.2       1 <1>        -0.989900 
     37 O          18.988000   20.387000   18.031000 O.2       1 <1>        -0.984000 
     38 N          19.248000   19.980000   15.552000 N.pl3     1 <1>        -1.303100 
     39 H          18.251000   19.877000   15.334000 H         1 <1>         0.484300 
     40 H          19.604000   19.054000   15.814000 H         1 <1>         0.488100 
@<TRIPOS>BOND
     1    1    2 ar   
     2    2    3 1    
     3    2    4 ar   
     4    4    5 1    
     5    4    6 ar   
     6    6    7 ar   
     7    7    8 1    
     8    7    9 ar   
     9    9   10 1    
    10    9    1 ar   
    11    6   11 1    
    12   11   12 ar   
    13   12   13 1    
    14   13   14 ar   
    15   14   15 1    
    16   14   16 ar   
    17   16   17 1    
    18   16   18 ar   
    19   18   19 ar   
    20   19   20 1    
    21   19   21 ar   
    22   21   22 1    
    23   21   13 ar   
    24   18   23 1    
    25   23   24 1    
    26   23   25 1    
    27   23   26 1    
    28   12   27 ar   
    29   27   28 1    
    30   27   29 ar   
    31   29   30 ar   
    32   30   11 ar   
    33   29   31 1    
    34   31   32 1    
    35   31   33 1    
    36   31   34 1    
    37    1   35 1    
    38   35   36 2    
    39   35   37 2    
    40   35   38 1    
    41   38   39 1    
    42   38   40 1    
@<TRIPOS>SUBSTRUCTURE
     1 ****        1 TEMP              0 ****  ****    0 ROOT 
@<TRIPOS>SET
UNITY_3DHIT     STATIC     ATOMS    <user>   **** Atoms matching 3D or FLEX Search
0
