#	Name:			9-19
#	Creating user name:	jeff
#	Creation time:		Fri Dec 13 09:57:39 2002

#	Modifying user name:	jeff
#	Modification time:	Fri Dec 13 09:57:42 2002

@<TRIPOS>MOLECULE
9-19
   41    44     1     0     1
SMALL
USER_CHARGES
****
From 3DB ct
@<TRIPOS>ATOM
      1 C          26.451000   22.100000   16.401000 C.2       1 <1>         0.023200 
      2 C          25.475000   21.472000   17.311000 C.2       1 <1>        -0.110800 
      3 C          26.163000   21.005000   18.378000 C.2       1 <1>        -0.426400 
      4 H          25.726000   20.504000   19.233000 H         1 <1>         0.249200 
      5 C          27.594000   21.283000   18.255000 C.3       1 <1>         0.397800 
      6 C          27.671000   21.979000   16.971000 C.2       1 <1>        -0.479100 
      7 H          28.600000   22.329000   16.538000 H         1 <1>         0.253700 
      8 C          28.642000   20.330000   18.718000 C.3       1 <1>        -0.305300 
      9 H          29.535000   20.206000   18.117000 H         1 <1>         0.149700 
     10 H          28.335000   19.430000   19.238000 H         1 <1>         0.150400 
     11 C          28.445000   21.652000   19.422000 C.3       1 <1>        -0.309300 
     12 H          28.007000   21.636000   20.413000 H         1 <1>         0.149600 
     13 H          29.208000   22.411000   19.291000 H         1 <1>         0.153600 
     14 C          24.019000   21.372000   17.173000 C.ar      1 <1>         0.296200 
     15 C          23.326000   22.245000   16.322000 C.ar      1 <1>        -0.258200 
     16 H          23.861000   23.009000   15.761000 H         1 <1>         0.191000 
     17 C          21.938000   22.153000   16.182000 C.ar      1 <1>        -0.034700 
     18 H          21.421000   22.839000   15.514000 H         1 <1>         0.188300 
     19 C          21.234000   21.187000   16.905000 C.ar      1 <1>        -0.501200 
     20 C          21.909000   20.304000   17.752000 C.ar      1 <1>        -0.034400 
     21 H          21.371000   19.542000   18.311000 H         1 <1>         0.184800 
     22 C          23.297000   20.402000   17.885000 C.ar      1 <1>        -0.281400 
     23 H          23.813000   19.706000   18.546000 H         1 <1>         0.191900 
     24 S          19.471000   21.056000   16.714000 S.o2      1 <1>         2.186700 
     25 O          18.939000   22.399000   16.507000 O.2       1 <1>        -0.974100 
     26 O          18.956000   20.271000   17.832000 O.2       1 <1>        -0.976600 
     27 C          19.278000   20.125000   15.217000 C.3       1 <1>        -0.720600 
     28 H          18.209000   20.005000   15.029000 H         1 <1>         0.232500 
     29 H          19.745000   19.147000   15.343000 H         1 <1>         0.189100 
     30 H          19.740000   20.674000   14.395000 H         1 <1>         0.188600 
     31 C          26.221000   22.721000   15.094000 C.ar      1 <1>         0.048600 
     32 C          26.472000   24.088000   14.897000 C.ar      1 <1>        -0.115000 
     33 H          26.838000   24.707000   15.715000 H         1 <1>         0.178300 
     34 C          26.244000   24.679000   13.652000 C.ar      1 <1>        -0.387900 
     35 H          26.436000   25.737000   13.500000 H         1 <1>         0.226600 
     36 C          25.767000   23.902000   12.603000 C.ar      1 <1>         0.564600 
     37 C          25.514000   22.547000   12.774000 C.ar      1 <1>        -0.386400 
     38 H          25.142000   21.955000   11.944000 H         1 <1>         0.223500 
     39 C          25.741000   21.957000   14.020000 C.ar      1 <1>        -0.123800 
     40 H          25.543000   20.893000   14.143000 H         1 <1>         0.177300 
     41 F          25.548000   24.469000   11.408000 F         1 <1>        -0.370000 
@<TRIPOS>BOND
     1    1    2 1    
     2    2    3 2    
     3    3    4 1    
     4    3    5 1    
     5    5    6 1    
     6    6    7 1    
     7    6    1 2    
     8    5    8 1    
     9    8    9 1    
    10    8   10 1    
    11    8   11 1    
    12   11   12 1    
    13   11   13 1    
    14   11    5 1    
    15    2   14 1    
    16   14   15 ar   
    17   15   16 1    
    18   15   17 ar   
    19   17   18 1    
    20   17   19 ar   
    21   19   20 ar   
    22   20   21 1    
    23   20   22 ar   
    24   22   23 1    
    25   22   14 ar   
    26   19   24 1    
    27   24   25 2    
    28   24   26 2    
    29   24   27 1    
    30   27   28 1    
    31   27   29 1    
    32   27   30 1    
    33    1   31 1    
    34   31   32 ar   
    35   32   33 1    
    36   32   34 ar   
    37   34   35 1    
    38   34   36 ar   
    39   36   37 ar   
    40   37   38 1    
    41   37   39 ar   
    42   39   40 1    
    43   39   31 ar   
    44   36   41 1    
@<TRIPOS>SUBSTRUCTURE
     1 ****        1 TEMP              0 ****  ****    0 ROOT 
@<TRIPOS>SET
UNITY_3DHIT     STATIC     ATOMS    <user>   **** Atoms matching 3D or FLEX Search
0
@<TRIPOS>UNITY_BOND_ATTR
2 1
S N
7 1
S I
