#	Name:			9-20
#	Creating user name:	jeff
#	Creation time:		Fri Dec 13 09:56:27 2002

#	Modifying user name:	jeff
#	Modification time:	Fri Dec 13 09:56:29 2002

@<TRIPOS>MOLECULE
9-20
   47    50     1     0     1
SMALL
USER_CHARGES
****
From 3DB ct
@<TRIPOS>ATOM
      1 C          26.389000   22.079000   16.422000 C.2       1 <1>        -0.036100 
      2 C          25.498000   21.501000   17.258000 C.2       1 <1>        -0.207000 
      3 C          26.186000   20.928000   18.479000 C.3       1 <1>        -0.079600 
      4 H          26.058000   19.842000   18.535000 H         1 <1>         0.074700 
      5 H          25.785000   21.386000   19.391000 H         1 <1>         0.075700 
      6 C          27.648000   21.277000   18.300000 C.3       1 <1>         0.046100 
      7 C          27.791000   22.022000   16.990000 C.3       1 <1>        -0.067200 
      8 H          28.190000   23.026000   17.166000 H         1 <1>         0.079000 
      9 H          28.458000   21.483000   16.308000 H         1 <1>         0.063800 
     10 C          28.735000   20.335000   18.773000 C.3       1 <1>        -0.302700 
     11 H          29.633000   20.237000   18.172000 H         1 <1>         0.142800 
     12 H          28.446000   19.420000   19.278000 H         1 <1>         0.140000 
     13 C          28.511000   21.633000   19.492000 C.3       1 <1>        -0.308000 
     14 H          28.073000   21.592000   20.484000 H         1 <1>         0.144900 
     15 H          29.258000   22.411000   19.378000 H         1 <1>         0.142600 
     16 C          24.041000   21.391000   17.117000 C.ar      1 <1>         0.324900 
     17 C          23.335000   22.267000   16.278000 C.ar      1 <1>        -0.275000 
     18 H          23.861000   23.039000   15.720000 H         1 <1>         0.182800 
     19 C          21.945000   22.174000   16.149000 C.ar      1 <1>        -0.021900 
     20 H          21.425000   22.864000   15.488000 H         1 <1>         0.190500 
     21 C          21.250000   21.207000   16.875000 C.ar      1 <1>        -0.527400 
     22 C          21.933000   20.325000   17.714000 C.ar      1 <1>        -0.005600 
     23 H          21.401000   19.561000   18.276000 H         1 <1>         0.180000 
     24 C          23.323000   20.426000   17.839000 C.ar      1 <1>        -0.306900 
     25 H          23.838000   19.726000   18.495000 H         1 <1>         0.197300 
     26 S          19.485000   21.073000   16.702000 S.o2      1 <1>         2.195000 
     27 O          18.950000   22.418000   16.507000 O.2       1 <1>        -0.972300 
     28 O          18.981000   20.281000   17.820000 O.2       1 <1>        -0.973700 
     29 C          19.280000   20.148000   15.203000 C.3       1 <1>        -0.741300 
     30 H          18.210000   20.029000   15.020000 H         1 <1>         0.238100 
     31 H          19.746000   19.168000   15.324000 H         1 <1>         0.193100 
     32 H          19.738000   20.698000   14.379000 H         1 <1>         0.192200 
     33 C          26.153000   22.705000   15.116000 C.ar      1 <1>        -0.117100 
     34 C          26.412000   24.065000   14.916000 C.ar      1 <1>         0.263800 
     35 H          26.769000   24.681000   15.738000 H         1 <1>         0.096100 
     36 C          26.190000   24.652000   13.665000 C.ar      1 <1>        -0.853600 
     37 C          25.714000   23.894000   12.583000 C.ar      1 <1>         0.955500 
     38 C          25.469000   22.534000   12.780000 C.ar      1 <1>        -0.579500 
     39 H          25.106000   21.890000   11.984000 H         1 <1>         0.224600 
     40 C          25.692000   21.947000   14.033000 C.ar      1 <1>         0.014700 
     41 H          25.502000   20.880000   14.148000 H         1 <1>         0.143100 
     42 O          25.524000   24.556000   11.398000 O.3       1 <1>        -0.601100 
     43 C          25.036000   23.795000   10.295000 C.3       1 <1>         0.234200 
     44 H          24.947000   24.471000    9.439000 H         1 <1>         0.078300 
     45 H          24.041000   23.390000   10.505000 H         1 <1>        -0.002200 
     46 H          25.740000   23.003000   10.022000 H         1 <1>        -0.002000 
     47 Cl         26.519000   26.345000   13.496000 Cl        1 <1>         0.166300 
@<TRIPOS>BOND
     1    1    2 2    
     2    2    3 1    
     3    3    4 1    
     4    3    5 1    
     5    3    6 1    
     6    6    7 1    
     7    7    8 1    
     8    7    9 1    
     9    7    1 1    
    10    6   10 1    
    11   10   11 1    
    12   10   12 1    
    13   10   13 1    
    14   13   14 1    
    15   13   15 1    
    16   13    6 1    
    17    2   16 1    
    18   16   17 ar   
    19   17   18 1    
    20   17   19 ar   
    21   19   20 1    
    22   19   21 ar   
    23   21   22 ar   
    24   22   23 1    
    25   22   24 ar   
    26   24   25 1    
    27   24   16 ar   
    28   21   26 1    
    29   26   27 2    
    30   26   28 2    
    31   26   29 1    
    32   29   30 1    
    33   29   31 1    
    34   29   32 1    
    35    1   33 1    
    36   33   34 ar   
    37   34   35 1    
    38   34   36 ar   
    39   36   37 ar   
    40   37   38 ar   
    41   38   39 1    
    42   38   40 ar   
    43   40   41 1    
    44   40   33 ar   
    45   37   42 1    
    46   42   43 1    
    47   43   44 1    
    48   43   45 1    
    49   43   46 1    
    50   36   47 1    
@<TRIPOS>SUBSTRUCTURE
     1 ****        1 TEMP              0 ****  ****    0 ROOT 
@<TRIPOS>SET
UNITY_3DHIT     STATIC     ATOMS    <user>   **** Atoms matching 3D or FLEX Search
0
@<TRIPOS>UNITY_BOND_ATTR
1 1
S I
