#	Name:			9-24
#	Creating user name:	jeff
#	Creation time:		Fri Dec 13 09:56:29 2002

#	Modifying user name:	jeff
#	Modification time:	Fri Dec 13 09:56:32 2002

@<TRIPOS>MOLECULE
9-24
   46    49     1     0     1
SMALL
USER_CHARGES
****
From 3DB ct
@<TRIPOS>ATOM
      1 C          26.387000   22.083000   16.424000 C.2       1 <1>         0.048100 
      2 C          25.496000   21.502000   17.257000 C.2       1 <1>        -0.267100 
      3 C          26.183000   20.921000   18.475000 C.3       1 <1>        -0.062200 
      4 H          26.055000   19.834000   18.521000 H         1 <1>         0.071900 
      5 H          25.782000   21.369000   19.391000 H         1 <1>         0.065200 
      6 C          27.645000   21.271000   18.297000 C.3       1 <1>         0.082300 
      7 C          27.789000   22.025000   16.992000 C.3       1 <1>        -0.189600 
      8 H          28.185000   23.029000   17.173000 H         1 <1>         0.110500 
      9 H          28.457000   21.493000   16.306000 H         1 <1>         0.088900 
     10 C          28.730000   20.324000   18.766000 C.3       1 <1>        -0.313400 
     11 H          29.629000   20.229000   18.167000 H         1 <1>         0.148500 
     12 H          28.438000   19.406000   19.263000 H         1 <1>         0.141100 
     13 C          28.506000   21.617000   19.494000 C.3       1 <1>        -0.315400 
     14 H          28.062000   21.570000   20.482000 H         1 <1>         0.147000 
     15 H          29.253000   22.395000   19.387000 H         1 <1>         0.145300 
     16 C          24.039000   21.390000   17.115000 C.ar      1 <1>         0.419400 
     17 C          23.332000   22.268000   16.279000 C.ar      1 <1>        -0.342000 
     18 H          23.856000   23.042000   15.720000 H         1 <1>         0.185400 
     19 C          21.942000   22.176000   16.153000 C.ar      1 <1>         0.084900 
     20 H          21.416000   22.866000   15.498000 H         1 <1>         0.177900 
     21 C          21.246000   21.208000   16.880000 C.ar      1 <1>        -0.645200 
     22 C          21.933000   20.326000   17.717000 C.ar      1 <1>         0.072700 
     23 H          21.400000   19.564000   18.283000 H         1 <1>         0.176800 
     24 C          23.323000   20.424000   17.837000 C.ar      1 <1>        -0.352400 
     25 H          23.839000   19.724000   18.492000 H         1 <1>         0.199200 
     26 S          19.488000   21.070000   16.705000 S.o2      1 <1>         2.459700 
     27 O          18.930000   22.381000   16.419000 O.2       1 <1>        -0.999900 
     28 O          18.960000   20.267000   17.793000 O.2       1 <1>        -1.001200 
     29 N          19.347000   20.161000   15.306000 N.pl3     1 <1>        -1.307300 
     30 H          18.874000   20.688000   14.567000 H         1 <1>         0.480700 
     31 H          18.878000   19.270000   15.489000 H         1 <1>         0.483000 
     32 C          26.152000   22.707000   15.116000 C.ar      1 <1>        -0.147200 
     33 C          26.406000   24.067000   14.916000 C.ar      1 <1>         0.289400 
     34 H          26.755000   24.687000   15.739000 H         1 <1>         0.084500 
     35 C          26.197000   24.651000   13.661000 C.ar      1 <1>        -0.862900 
     36 C          25.735000   23.889000   12.576000 C.ar      1 <1>         0.956500 
     37 C          25.488000   22.529000   12.775000 C.ar      1 <1>        -0.571700 
     38 H          25.132000   21.883000   11.977000 H         1 <1>         0.223700 
     39 C          25.699000   21.946000   14.032000 C.ar      1 <1>         0.018200 
     40 H          25.509000   20.880000   14.148000 H         1 <1>         0.144400 
     41 O          25.561000   24.545000   11.385000 O.3       1 <1>        -0.603400 
     42 C          25.094000   23.776000   10.278000 C.3       1 <1>         0.245300 
     43 H          25.013000   24.447000    9.418000 H         1 <1>         0.074400 
     44 H          24.098000   23.367000   10.477000 H         1 <1>        -0.002900 
     45 H          25.806000   22.986000   10.019000 H         1 <1>        -0.005900 
     46 Cl         26.525000   26.344000   13.492000 Cl        1 <1>         0.164900 
@<TRIPOS>BOND
     1    1    2 2    
     2    2    3 1    
     3    3    4 1    
     4    3    5 1    
     5    3    6 1    
     6    6    7 1    
     7    7    8 1    
     8    7    9 1    
     9    7    1 1    
    10    6   10 1    
    11   10   11 1    
    12   10   12 1    
    13   10   13 1    
    14   13   14 1    
    15   13   15 1    
    16   13    6 1    
    17    2   16 1    
    18   16   17 ar   
    19   17   18 1    
    20   17   19 ar   
    21   19   20 1    
    22   19   21 ar   
    23   21   22 ar   
    24   22   23 1    
    25   22   24 ar   
    26   24   25 1    
    27   24   16 ar   
    28   21   26 1    
    29   26   27 2    
    30   26   28 2    
    31   26   29 1    
    32   29   30 1    
    33   29   31 1    
    34    1   32 1    
    35   32   33 ar   
    36   33   34 1    
    37   33   35 ar   
    38   35   36 ar   
    39   36   37 ar   
    40   37   38 1    
    41   37   39 ar   
    42   39   40 1    
    43   39   32 ar   
    44   36   41 1    
    45   41   42 1    
    46   42   43 1    
    47   42   44 1    
    48   42   45 1    
    49   35   46 1    
@<TRIPOS>SUBSTRUCTURE
     1 ****        1 TEMP              0 ****  ****    0 ROOT 
@<TRIPOS>SET
UNITY_3DHIT     STATIC     ATOMS    <user>   **** Atoms matching 3D or FLEX Search
0
@<TRIPOS>UNITY_BOND_ATTR
1 1
S I
