#	Name:			9-29
#	Creating user name:	jeff
#	Creation time:		Fri Dec 13 09:57:42 2002

#	Modifying user name:	jeff
#	Modification time:	Fri Dec 13 09:57:44 2002

@<TRIPOS>MOLECULE
9-29
   45    48     1     0     1
SMALL
USER_CHARGES
****
From 3DB ct
@<TRIPOS>ATOM
      1 C          26.453000   22.098000   16.403000 C.2       1 <1>         0.000200 
      2 C          25.479000   21.472000   17.314000 C.2       1 <1>        -0.103600 
      3 C          26.166000   21.002000   18.379000 C.2       1 <1>        -0.422700 
      4 H          25.729000   20.500000   19.234000 H         1 <1>         0.247800 
      5 C          27.597000   21.278000   18.255000 C.3       1 <1>         0.374800 
      6 C          27.674000   21.974000   16.970000 C.2       1 <1>        -0.419100 
      7 H          28.604000   22.322000   16.537000 H         1 <1>         0.233300 
      8 C          28.643000   20.322000   18.718000 C.3       1 <1>        -0.317800 
      9 H          29.535000   20.194000   18.116000 H         1 <1>         0.152300 
     10 H          28.333000   19.424000   19.239000 H         1 <1>         0.154900 
     11 C          28.450000   21.646000   19.421000 C.3       1 <1>        -0.300700 
     12 H          28.011000   21.633000   20.412000 H         1 <1>         0.148000 
     13 H          29.214000   22.403000   19.290000 H         1 <1>         0.154200 
     14 C          24.023000   21.375000   17.177000 C.ar      1 <1>         0.293600 
     15 C          23.334000   22.249000   16.323000 C.ar      1 <1>        -0.253500 
     16 H          23.872000   23.013000   15.764000 H         1 <1>         0.188100 
     17 C          21.947000   22.157000   16.179000 C.ar      1 <1>        -0.031100 
     18 H          21.433000   22.843000   15.509000 H         1 <1>         0.189600 
     19 C          21.241000   21.191000   16.899000 C.ar      1 <1>        -0.500800 
     20 C          21.911000   20.309000   17.749000 C.ar      1 <1>        -0.046100 
     21 H          21.370000   19.547000   18.307000 H         1 <1>         0.184500 
     22 C          23.299000   20.406000   17.888000 C.ar      1 <1>        -0.271400 
     23 H          23.813000   19.710000   18.551000 H         1 <1>         0.189100 
     24 S          19.479000   21.058000   16.700000 S.o2      1 <1>         2.185700 
     25 O          18.948000   22.400000   16.481000 O.2       1 <1>        -0.972400 
     26 O          18.958000   20.280000   17.820000 O.2       1 <1>        -0.974500 
     27 C          19.294000   20.116000   15.209000 C.3       1 <1>        -0.733400 
     28 H          18.226000   19.988000   15.020000 H         1 <1>         0.236100 
     29 H          19.767000   19.142000   15.343000 H         1 <1>         0.192200 
     30 H          19.755000   20.662000   14.383000 H         1 <1>         0.190200 
     31 C          26.217000   22.721000   15.098000 C.ar      1 <1>        -0.103000 
     32 C          26.466000   24.083000   14.898000 C.ar      1 <1>         0.305500 
     33 H          26.839000   24.695000   15.717000 H         1 <1>         0.088900 
     34 C          26.226000   24.669000   13.650000 C.ar      1 <1>        -0.879700 
     35 C          25.735000   23.909000   12.576000 C.ar      1 <1>         0.961700 
     36 C          25.489000   22.549000   12.779000 C.ar      1 <1>        -0.564600 
     37 H          25.109000   21.907000   11.989000 H         1 <1>         0.219300 
     38 C          25.729000   21.962000   14.028000 C.ar      1 <1>        -0.030900 
     39 H          25.530000   20.899000   14.155000 H         1 <1>         0.170500 
     40 O          25.529000   24.569000   11.391000 O.3       1 <1>        -0.590700 
     41 C          25.048000   23.801000   10.290000 C.3       1 <1>         0.191200 
     42 H          24.945000   24.475000    9.434000 H         1 <1>         0.088200 
     43 H          24.060000   23.381000   10.504000 H         1 <1>         0.006900 
     44 H          25.763000   23.019000   10.013000 H         1 <1>         0.007500 
     45 Cl         26.549000   26.362000   13.476000 Cl        1 <1>         0.161500 
@<TRIPOS>BOND
     1    1    2 1    
     2    2    3 2    
     3    3    4 1    
     4    3    5 1    
     5    5    6 1    
     6    6    7 1    
     7    6    1 2    
     8    5    8 1    
     9    8    9 1    
    10    8   10 1    
    11    8   11 1    
    12   11   12 1    
    13   11   13 1    
    14   11    5 1    
    15    2   14 1    
    16   14   15 ar   
    17   15   16 1    
    18   15   17 ar   
    19   17   18 1    
    20   17   19 ar   
    21   19   20 ar   
    22   20   21 1    
    23   20   22 ar   
    24   22   23 1    
    25   22   14 ar   
    26   19   24 1    
    27   24   25 2    
    28   24   26 2    
    29   24   27 1    
    30   27   28 1    
    31   27   29 1    
    32   27   30 1    
    33    1   31 1    
    34   31   32 ar   
    35   32   33 1    
    36   32   34 ar   
    37   34   35 ar   
    38   35   36 ar   
    39   36   37 1    
    40   36   38 ar   
    41   38   39 1    
    42   38   31 ar   
    43   35   40 1    
    44   40   41 1    
    45   41   42 1    
    46   41   43 1    
    47   41   44 1    
    48   34   45 1    
@<TRIPOS>SUBSTRUCTURE
     1 ****        1 TEMP              0 ****  ****    0 ROOT 
@<TRIPOS>SET
UNITY_3DHIT     STATIC     ATOMS    <user>   **** Atoms matching 3D or FLEX Search
0
@<TRIPOS>UNITY_BOND_ATTR
2 1
S N
7 1
S I
