#	Name:			9-3
#	Creating user name:	jeff
#	Creation time:		Fri Dec 13 09:56:24 2002

#	Modifying user name:	jeff
#	Modification time:	Fri Dec 13 09:56:26 2002

@<TRIPOS>MOLECULE
9-3
   43    46     1     0     1
SMALL
USER_CHARGES
****
From 3DB ct
@<TRIPOS>ATOM
      1 C          26.385000   22.083000   16.421000 C.2       1 <1>        -0.051600 
      2 C          25.494000   21.502000   17.254000 C.2       1 <1>        -0.193100 
      3 C          26.180000   20.925000   18.474000 C.3       1 <1>        -0.038900 
      4 H          26.054000   19.839000   18.522000 H         1 <1>         0.066300 
      5 H          25.777000   21.375000   19.389000 H         1 <1>         0.069600 
      6 C          27.642000   21.277000   18.300000 C.3       1 <1>         0.005700 
      7 C          27.786000   22.029000   16.994000 C.3       1 <1>        -0.060700 
      8 H          28.177000   23.035000   17.176000 H         1 <1>         0.069100 
      9 H          28.459000   21.499000   16.310000 H         1 <1>         0.071700 
     10 C          28.727000   20.333000   18.772000 C.3       1 <1>        -0.313700 
     11 H          29.627000   20.236000   18.174000 H         1 <1>         0.147800 
     12 H          28.436000   19.417000   19.274000 H         1 <1>         0.147800 
     13 C          28.503000   21.629000   19.494000 C.3       1 <1>        -0.305200 
     14 H          28.060000   21.586000   20.483000 H         1 <1>         0.147000 
     15 H          29.252000   22.405000   19.384000 H         1 <1>         0.146500 
     16 C          24.036000   21.388000   17.114000 C.ar      1 <1>         0.297500 
     17 C          23.326000   22.265000   16.279000 C.ar      1 <1>        -0.262300 
     18 H          23.848000   23.039000   15.719000 H         1 <1>         0.178200 
     19 C          21.936000   22.171000   16.156000 C.ar      1 <1>        -0.013100 
     20 H          21.410000   22.860000   15.499000 H         1 <1>         0.187600 
     21 C          21.244000   21.203000   16.885000 C.ar      1 <1>        -0.536800 
     22 C          21.931000   20.322000   17.721000 C.ar      1 <1>         0.006300 
     23 H          21.403000   19.558000   18.287000 H         1 <1>         0.178000 
     24 C          23.322000   20.422000   17.837000 C.ar      1 <1>        -0.310200 
     25 H          23.840000   19.722000   18.491000 H         1 <1>         0.198900 
     26 S          19.479000   21.068000   16.715000 S.o2      1 <1>         2.195400 
     27 O          18.941000   22.412000   16.522000 O.2       1 <1>        -0.972800 
     28 O          18.980000   20.276000   17.835000 O.2       1 <1>        -0.974600 
     29 C          19.269000   20.145000   15.216000 C.3       1 <1>        -0.734100 
     30 H          18.198000   20.023000   15.040000 H         1 <1>         0.236600 
     31 H          19.740000   19.168000   15.330000 H         1 <1>         0.192800 
     32 H          19.719000   20.700000   14.391000 H         1 <1>         0.191900 
     33 C          26.156000   22.706000   15.111000 C.ar      1 <1>         0.037600 
     34 C          26.415000   24.071000   14.915000 C.ar      1 <1>        -0.141800 
     35 H          26.762000   24.696000   15.735000 H         1 <1>         0.187800 
     36 C          26.213000   24.661000   13.664000 C.ar      1 <1>        -0.369300 
     37 H          26.407000   25.720000   13.517000 H         1 <1>         0.224600 
     38 C          25.759000   23.886000   12.605000 C.ar      1 <1>         0.573300 
     39 C          25.505000   22.531000   12.772000 C.ar      1 <1>        -0.405400 
     40 H          25.156000   21.936000   11.933000 H         1 <1>         0.231600 
     41 C          25.707000   21.942000   14.023000 C.ar      1 <1>        -0.094900 
     42 H          25.517000   20.875000   14.136000 H         1 <1>         0.158500 
     43 F          25.565000   24.452000   11.406000 F         1 <1>        -0.369500 
@<TRIPOS>BOND
     1    1    2 2    
     2    2    3 1    
     3    3    4 1    
     4    3    5 1    
     5    3    6 1    
     6    6    7 1    
     7    7    8 1    
     8    7    9 1    
     9    7    1 1    
    10    6   10 1    
    11   10   11 1    
    12   10   12 1    
    13   10   13 1    
    14   13   14 1    
    15   13   15 1    
    16   13    6 1    
    17    2   16 1    
    18   16   17 ar   
    19   17   18 1    
    20   17   19 ar   
    21   19   20 1    
    22   19   21 ar   
    23   21   22 ar   
    24   22   23 1    
    25   22   24 ar   
    26   24   25 1    
    27   24   16 ar   
    28   21   26 1    
    29   26   27 2    
    30   26   28 2    
    31   26   29 1    
    32   29   30 1    
    33   29   31 1    
    34   29   32 1    
    35    1   33 1    
    36   33   34 ar   
    37   34   35 1    
    38   34   36 ar   
    39   36   37 1    
    40   36   38 ar   
    41   38   39 ar   
    42   39   40 1    
    43   39   41 ar   
    44   41   42 1    
    45   41   33 ar   
    46   38   43 1    
@<TRIPOS>SUBSTRUCTURE
     1 ****        1 TEMP              0 ****  ****    0 ROOT 
@<TRIPOS>SET
UNITY_3DHIT     STATIC     ATOMS    <user>   **** Atoms matching 3D or FLEX Search
0
@<TRIPOS>UNITY_BOND_ATTR
1 1
S I
