#	Name:			9-32
#	Creating user name:	jeff
#	Creation time:		Fri Dec 13 09:56:32 2002

#	Modifying user name:	jeff
#	Modification time:	Fri Dec 13 09:56:34 2002

@<TRIPOS>MOLECULE
9-32
   42    45     1     0     1
SMALL
USER_CHARGES
****
From 3DB ct
@<TRIPOS>ATOM
      1 C          26.385000   22.082000   16.421000 C.2       1 <1>        -0.017000 
      2 C          25.494000   21.501000   17.254000 C.2       1 <1>        -0.255400 
      3 C          26.180000   20.925000   18.474000 C.3       1 <1>        -0.065400 
      4 H          26.058000   19.838000   18.521000 H         1 <1>         0.076000 
      5 H          25.774000   21.373000   19.389000 H         1 <1>         0.069500 
      6 C          27.642000   21.282000   18.302000 C.3       1 <1>         0.030000 
      7 C          27.786000   22.030000   16.993000 C.3       1 <1>        -0.052100 
      8 H          28.178000   23.037000   17.172000 H         1 <1>         0.065200 
      9 H          28.458000   21.498000   16.311000 H         1 <1>         0.065400 
     10 C          28.729000   20.345000   18.782000 C.3       1 <1>        -0.319600 
     11 H          29.630000   20.249000   18.186000 H         1 <1>         0.148100 
     12 H          28.441000   19.430000   19.287000 H         1 <1>         0.147600 
     13 C          28.497000   21.643000   19.497000 C.3       1 <1>        -0.301400 
     14 H          28.050000   21.604000   20.485000 H         1 <1>         0.146100 
     15 H          29.242000   22.423000   19.386000 H         1 <1>         0.142300 
     16 C          24.036000   21.387000   17.113000 C.ar      1 <1>         0.419300 
     17 C          23.325000   22.265000   16.280000 C.ar      1 <1>        -0.340000 
     18 H          23.847000   23.039000   15.719000 H         1 <1>         0.189400 
     19 C          21.935000   22.171000   16.159000 C.ar      1 <1>         0.082900 
     20 H          21.405000   22.860000   15.505000 H         1 <1>         0.176000 
     21 C          21.242000   21.202000   16.888000 C.ar      1 <1>        -0.635700 
     22 C          21.931000   20.322000   17.723000 C.ar      1 <1>         0.062200 
     23 H          21.402000   19.559000   18.290000 H         1 <1>         0.180700 
     24 C          23.322000   20.421000   17.838000 C.ar      1 <1>        -0.355500 
     25 H          23.841000   19.721000   18.491000 H         1 <1>         0.202400 
     26 S          19.484000   21.071000   16.710000 S.o2      1 <1>         2.463600 
     27 O          18.927000   22.381000   16.422000 O.2       1 <1>        -1.000900 
     28 O          18.957000   20.270000   17.801000 O.2       1 <1>        -1.003300 
     29 N          19.339000   20.163000   15.310000 N.pl3     1 <1>        -1.306800 
     30 H          18.861000   20.692000   14.576000 H         1 <1>         0.480800 
     31 H          18.870000   19.272000   15.495000 H         1 <1>         0.483700 
     32 C          26.155000   22.706000   15.111000 C.ar      1 <1>         0.006100 
     33 C          26.414000   24.071000   14.915000 C.ar      1 <1>        -0.126500 
     34 H          26.762000   24.696000   15.736000 H         1 <1>         0.181900 
     35 C          26.211000   24.661000   13.664000 C.ar      1 <1>        -0.379800 
     36 H          26.406000   25.719000   13.517000 H         1 <1>         0.225600 
     37 C          25.757000   23.885000   12.605000 C.ar      1 <1>         0.579100 
     38 C          25.503000   22.530000   12.772000 C.ar      1 <1>        -0.403100 
     39 H          25.153000   21.936000   11.934000 H         1 <1>         0.230900 
     40 C          25.706000   21.941000   14.023000 C.ar      1 <1>        -0.079800 
     41 H          25.516000   20.875000   14.137000 H         1 <1>         0.158200 
     42 F          25.564000   24.451000   11.407000 F         1 <1>        -0.370800 
@<TRIPOS>BOND
     1    1    2 2    
     2    2    3 1    
     3    3    4 1    
     4    3    5 1    
     5    3    6 1    
     6    6    7 1    
     7    7    8 1    
     8    7    9 1    
     9    7    1 1    
    10    6   10 1    
    11   10   11 1    
    12   10   12 1    
    13   10   13 1    
    14   13   14 1    
    15   13   15 1    
    16   13    6 1    
    17    2   16 1    
    18   16   17 ar   
    19   17   18 1    
    20   17   19 ar   
    21   19   20 1    
    22   19   21 ar   
    23   21   22 ar   
    24   22   23 1    
    25   22   24 ar   
    26   24   25 1    
    27   24   16 ar   
    28   21   26 1    
    29   26   27 2    
    30   26   28 2    
    31   26   29 1    
    32   29   30 1    
    33   29   31 1    
    34    1   32 1    
    35   32   33 ar   
    36   33   34 1    
    37   33   35 ar   
    38   35   36 1    
    39   35   37 ar   
    40   37   38 ar   
    41   38   39 1    
    42   38   40 ar   
    43   40   41 1    
    44   40   32 ar   
    45   37   42 1    
@<TRIPOS>SUBSTRUCTURE
     1 ****        1 TEMP              0 ****  ****    0 ROOT 
@<TRIPOS>SET
UNITY_3DHIT     STATIC     ATOMS    <user>   **** Atoms matching 3D or FLEX Search
0
@<TRIPOS>UNITY_BOND_ATTR
1 1
S I
