#	Name:			9-35
#	Creating user name:	jeff
#	Creation time:		Fri Dec 13 09:56:39 2002

#	Modifying user name:	jeff
#	Modification time:	Fri Dec 13 09:56:41 2002

@<TRIPOS>MOLECULE
9-35
   46    49     1     0     1
SMALL
USER_CHARGES
****
From 3DB ct
@<TRIPOS>ATOM
      1 C          26.384000   22.082000   16.420000 C.2       1 <1>        -0.044500 
      2 C          25.492000   21.502000   17.253000 C.2       1 <1>        -0.209600 
      3 C          26.177000   20.926000   18.475000 C.3       1 <1>        -0.041100 
      4 H          26.051000   19.840000   18.524000 H         1 <1>         0.065100 
      5 H          25.774000   21.378000   19.388000 H         1 <1>         0.066900 
      6 C          27.640000   21.277000   18.301000 C.3       1 <1>         0.013400 
      7 C          27.785000   22.029000   16.995000 C.3       1 <1>        -0.061700 
      8 H          28.176000   23.035000   17.177000 H         1 <1>         0.070500 
      9 H          28.458000   21.499000   16.312000 H         1 <1>         0.069400 
     10 C          28.724000   20.333000   18.775000 C.3       1 <1>        -0.312700 
     11 H          29.624000   20.236000   18.177000 H         1 <1>         0.146400 
     12 H          28.432000   19.417000   19.276000 H         1 <1>         0.145700 
     13 C          28.499000   21.629000   19.496000 C.3       1 <1>        -0.309000 
     14 H          28.055000   21.588000   20.485000 H         1 <1>         0.147000 
     15 H          29.247000   22.406000   19.386000 H         1 <1>         0.146000 
     16 C          24.034000   21.387000   17.113000 C.ar      1 <1>         0.318700 
     17 C          23.323000   22.263000   16.280000 C.ar      1 <1>        -0.269800 
     18 H          23.845000   23.036000   15.717000 H         1 <1>         0.182000 
     19 C          21.932000   22.169000   16.158000 C.ar      1 <1>        -0.009400 
     20 H          21.406000   22.858000   15.501000 H         1 <1>         0.185300 
     21 C          21.241000   21.201000   16.888000 C.ar      1 <1>        -0.541700 
     22 C          21.930000   20.320000   17.723000 C.ar      1 <1>         0.006000 
     23 H          21.402000   19.556000   18.290000 H         1 <1>         0.177300 
     24 C          23.321000   20.421000   17.838000 C.ar      1 <1>        -0.314800 
     25 H          23.840000   19.721000   18.491000 H         1 <1>         0.197700 
     26 S          19.476000   21.067000   16.720000 S.o2      1 <1>         2.200600 
     27 O          18.937000   22.411000   16.541000 O.2       1 <1>        -0.976000 
     28 O          18.981000   20.264000   17.834000 O.2       1 <1>        -0.977300 
     29 C          19.265000   20.157000   15.213000 C.3       1 <1>        -0.741300 
     30 H          18.193000   20.035000   15.039000 H         1 <1>         0.236500 
     31 H          19.738000   19.180000   15.317000 H         1 <1>         0.194300 
     32 H          19.713000   20.721000   14.392000 H         1 <1>         0.192700 
     33 C          26.159000   22.706000   15.110000 C.ar      1 <1>         0.083700 
     34 C          26.416000   24.069000   14.913000 C.ar      1 <1>        -0.213700 
     35 H          26.755000   24.695000   15.736000 H         1 <1>         0.180300 
     36 C          26.219000   24.661000   13.660000 C.ar      1 <1>        -0.248500 
     37 H          26.413000   25.727000   13.542000 H         1 <1>         0.184300 
     38 C          25.779000   23.898000   12.575000 C.ar      1 <1>         0.209000 
     39 C          25.517000   22.538000   12.767000 C.ar      1 <1>        -0.297000 
     40 H          25.160000   21.923000   11.941000 H         1 <1>         0.193800 
     41 C          25.714000   21.948000   14.019000 C.ar      1 <1>        -0.152000 
     42 H          25.520000   20.882000   14.131000 H         1 <1>         0.146800 
     43 C          25.534000   24.540000   11.241000 C.3       1 <1>        -0.306600 
     44 H          25.700000   23.826000   10.427000 H         1 <1>         0.087300 
     45 H          26.219000   25.379000   11.081000 H         1 <1>         0.086200 
     46 H          24.505000   24.907000   11.186000 H         1 <1>         0.094000 
@<TRIPOS>BOND
     1    1    2 2    
     2    2    3 1    
     3    3    4 1    
     4    3    5 1    
     5    3    6 1    
     6    6    7 1    
     7    7    8 1    
     8    7    9 1    
     9    7    1 1    
    10    6   10 1    
    11   10   11 1    
    12   10   12 1    
    13   10   13 1    
    14   13   14 1    
    15   13   15 1    
    16   13    6 1    
    17    2   16 1    
    18   16   17 ar   
    19   17   18 1    
    20   17   19 ar   
    21   19   20 1    
    22   19   21 ar   
    23   21   22 ar   
    24   22   23 1    
    25   22   24 ar   
    26   24   25 1    
    27   24   16 ar   
    28   21   26 1    
    29   26   27 2    
    30   26   28 2    
    31   26   29 1    
    32   29   30 1    
    33   29   31 1    
    34   29   32 1    
    35    1   33 1    
    36   33   34 ar   
    37   34   35 1    
    38   34   36 ar   
    39   36   37 1    
    40   36   38 ar   
    41   38   39 ar   
    42   39   40 1    
    43   39   41 ar   
    44   41   42 1    
    45   41   33 ar   
    46   38   43 1    
    47   43   44 1    
    48   43   45 1    
    49   43   46 1    
@<TRIPOS>SUBSTRUCTURE
     1 ****        1 TEMP              0 ****  ****    0 ROOT 
@<TRIPOS>SET
UNITY_3DHIT     STATIC     ATOMS    <user>   **** Atoms matching 3D or FLEX Search
0
@<TRIPOS>UNITY_BOND_ATTR
1 1
S I
