#	Name:			9-36
#	Creating user name:	jeff
#	Creation time:		Fri Dec 13 09:56:41 2002

#	Modifying user name:	jeff
#	Modification time:	Fri Dec 13 09:56:44 2002

@<TRIPOS>MOLECULE
9-36
   47    50     1     0     1
SMALL
USER_CHARGES
****
From 3DB ct
@<TRIPOS>ATOM
      1 C          26.384000   22.082000   16.421000 C.2       1 <1>        -0.021100 
      2 C          25.493000   21.502000   17.254000 C.2       1 <1>        -0.217100 
      3 C          26.179000   20.925000   18.475000 C.3       1 <1>        -0.034200 
      4 H          26.053000   19.838000   18.523000 H         1 <1>         0.063500 
      5 H          25.776000   21.375000   19.389000 H         1 <1>         0.067400 
      6 C          27.641000   21.277000   18.301000 C.3       1 <1>        -0.002400 
      7 C          27.785000   22.028000   16.994000 C.3       1 <1>        -0.048300 
      8 H          28.177000   23.034000   17.175000 H         1 <1>         0.069100 
      9 H          28.458000   21.497000   16.311000 H         1 <1>         0.067300 
     10 C          28.726000   20.334000   18.775000 C.3       1 <1>        -0.314200 
     11 H          29.625000   20.236000   18.177000 H         1 <1>         0.147600 
     12 H          28.435000   19.418000   19.278000 H         1 <1>         0.147500 
     13 C          28.501000   21.631000   19.496000 C.3       1 <1>        -0.307200 
     14 H          28.057000   21.590000   20.484000 H         1 <1>         0.147300 
     15 H          29.249000   22.407000   19.385000 H         1 <1>         0.144800 
     16 C          24.035000   21.387000   17.115000 C.ar      1 <1>         0.324700 
     17 C          23.324000   22.265000   16.281000 C.ar      1 <1>        -0.288800 
     18 H          23.847000   23.038000   15.720000 H         1 <1>         0.190000 
     19 C          21.934000   22.170000   16.158000 C.ar      1 <1>         0.001300 
     20 H          21.408000   22.859000   15.501000 H         1 <1>         0.184200 
     21 C          21.243000   21.201000   16.887000 C.ar      1 <1>        -0.543700 
     22 C          21.931000   20.321000   17.723000 C.ar      1 <1>         0.007400 
     23 H          21.403000   19.557000   18.290000 H         1 <1>         0.175500 
     24 C          23.321000   20.422000   17.839000 C.ar      1 <1>        -0.321300 
     25 H          23.840000   19.722000   18.493000 H         1 <1>         0.199900 
     26 S          19.478000   21.068000   16.716000 S.o2      1 <1>         2.202200 
     27 O          18.940000   22.410000   16.520000 O.2       1 <1>        -0.977500 
     28 O          18.980000   20.277000   17.837000 O.2       1 <1>        -0.978700 
     29 C          19.269000   20.143000   15.217000 C.3       1 <1>        -0.732800 
     30 H          18.198000   20.022000   15.041000 H         1 <1>         0.234000 
     31 H          19.739000   19.165000   15.333000 H         1 <1>         0.192700 
     32 H          19.721000   20.698000   14.393000 H         1 <1>         0.191300 
     33 C          26.157000   22.705000   15.111000 C.ar      1 <1>        -0.046600 
     34 C          26.414000   24.067000   14.911000 C.ar      1 <1>        -0.160000 
     35 H          26.760000   24.693000   15.732000 H         1 <1>         0.185000 
     36 C          26.215000   24.663000   13.658000 C.ar      1 <1>        -0.324500 
     37 H          26.425000   25.725000   13.565000 H         1 <1>         0.171700 
     38 C          25.764000   23.901000   12.582000 C.ar      1 <1>         0.486200 
     39 C          25.514000   22.541000   12.771000 C.ar      1 <1>        -0.441400 
     40 H          25.166000   21.930000   11.941000 H         1 <1>         0.217100 
     41 C          25.712000   21.947000   14.022000 C.ar      1 <1>        -0.006500 
     42 H          25.520000   20.881000   14.130000 H         1 <1>         0.136500 
     43 O          25.532000   24.358000   11.314000 O.3       1 <1>        -0.447400 
     44 C          25.778000   25.743000   11.076000 C.3       1 <1>         0.113500 
     45 H          25.551000   25.945000   10.025000 H         1 <1>         0.080100 
     46 H          26.831000   25.989000   11.243000 H         1 <1>         0.033900 
     47 H          25.120000   26.369000   11.687000 H         1 <1>         0.032300 
@<TRIPOS>BOND
     1    1    2 2    
     2    2    3 1    
     3    3    4 1    
     4    3    5 1    
     5    3    6 1    
     6    6    7 1    
     7    7    8 1    
     8    7    9 1    
     9    7    1 1    
    10    6   10 1    
    11   10   11 1    
    12   10   12 1    
    13   10   13 1    
    14   13   14 1    
    15   13   15 1    
    16   13    6 1    
    17    2   16 1    
    18   16   17 ar   
    19   17   18 1    
    20   17   19 ar   
    21   19   20 1    
    22   19   21 ar   
    23   21   22 ar   
    24   22   23 1    
    25   22   24 ar   
    26   24   25 1    
    27   24   16 ar   
    28   21   26 1    
    29   26   27 2    
    30   26   28 2    
    31   26   29 1    
    32   29   30 1    
    33   29   31 1    
    34   29   32 1    
    35    1   33 1    
    36   33   34 ar   
    37   34   35 1    
    38   34   36 ar   
    39   36   37 1    
    40   36   38 ar   
    41   38   39 ar   
    42   39   40 1    
    43   39   41 ar   
    44   41   42 1    
    45   41   33 ar   
    46   38   43 1    
    47   43   44 1    
    48   44   45 1    
    49   44   46 1    
    50   44   47 1    
@<TRIPOS>SUBSTRUCTURE
     1 ****        1 TEMP              0 ****  ****    0 ROOT 
@<TRIPOS>SET
UNITY_3DHIT     STATIC     ATOMS    <user>   **** Atoms matching 3D or FLEX Search
0
@<TRIPOS>UNITY_BOND_ATTR
1 1
S I
