#	Name:			9-37
#	Creating user name:	jeff
#	Creation time:		Fri Dec 13 09:56:44 2002

#	Modifying user name:	jeff
#	Modification time:	Fri Dec 13 09:56:47 2002

@<TRIPOS>MOLECULE
9-37
   46    49     1     0     1
SMALL
USER_CHARGES
****
From 3DB ct
@<TRIPOS>ATOM
      1 C          26.385000   22.081000   16.420000 C.2       1 <1>         0.028300 
      2 C          25.493000   21.500000   17.254000 C.2       1 <1>        -0.295800 
      3 C          26.180000   20.926000   18.475000 C.3       1 <1>        -0.052600 
      4 H          26.058000   19.839000   18.523000 H         1 <1>         0.071700 
      5 H          25.775000   21.375000   19.389000 H         1 <1>         0.064700 
      6 C          27.642000   21.282000   18.302000 C.3       1 <1>         0.031400 
      7 C          27.785000   22.029000   16.993000 C.3       1 <1>        -0.057800 
      8 H          28.177000   23.036000   17.171000 H         1 <1>         0.068000 
      9 H          28.457000   21.496000   16.312000 H         1 <1>         0.063500 
     10 C          28.730000   20.345000   18.782000 C.3       1 <1>        -0.322500 
     11 H          29.631000   20.250000   18.186000 H         1 <1>         0.148400 
     12 H          28.441000   19.430000   19.286000 H         1 <1>         0.146700 
     13 C          28.497000   21.643000   19.497000 C.3       1 <1>        -0.301100 
     14 H          28.050000   21.604000   20.485000 H         1 <1>         0.144700 
     15 H          29.242000   22.423000   19.386000 H         1 <1>         0.139900 
     16 C          24.035000   21.386000   17.115000 C.ar      1 <1>         0.452100 
     17 C          23.324000   22.264000   16.282000 C.ar      1 <1>        -0.361200 
     18 H          23.846000   23.038000   15.722000 H         1 <1>         0.196400 
     19 C          21.934000   22.171000   16.161000 C.ar      1 <1>         0.097300 
     20 H          21.404000   22.860000   15.508000 H         1 <1>         0.173000 
     21 C          21.241000   21.201000   16.889000 C.ar      1 <1>        -0.659500 
     22 C          21.930000   20.322000   17.726000 C.ar      1 <1>         0.085200 
     23 H          21.400000   19.560000   18.293000 H         1 <1>         0.174400 
     24 C          23.321000   20.422000   17.841000 C.ar      1 <1>        -0.370700 
     25 H          23.839000   19.722000   18.495000 H         1 <1>         0.201800 
     26 S          19.483000   21.069000   16.709000 S.o2      1 <1>         2.468900 
     27 O          18.926000   22.378000   16.419000 O.2       1 <1>        -1.003800 
     28 O          18.955000   20.268000   17.799000 O.2       1 <1>        -1.004800 
     29 N          19.340000   20.161000   15.309000 N.pl3     1 <1>        -1.308600 
     30 H          18.863000   20.690000   14.574000 H         1 <1>         0.481400 
     31 H          18.872000   19.270000   15.492000 H         1 <1>         0.482500 
     32 C          26.156000   22.704000   15.111000 C.ar      1 <1>        -0.082300 
     33 C          26.413000   24.066000   14.911000 C.ar      1 <1>        -0.138800 
     34 H          26.761000   24.691000   15.733000 H         1 <1>         0.176800 
     35 C          26.213000   24.663000   13.659000 C.ar      1 <1>        -0.335400 
     36 H          26.423000   25.725000   13.566000 H         1 <1>         0.171200 
     37 C          25.759000   23.902000   12.583000 C.ar      1 <1>         0.491200 
     38 C          25.509000   22.542000   12.772000 C.ar      1 <1>        -0.450300 
     39 H          25.159000   21.931000   11.942000 H         1 <1>         0.218600 
     40 C          25.709000   21.947000   14.022000 C.ar      1 <1>         0.020200 
     41 H          25.517000   20.880000   14.130000 H         1 <1>         0.131900 
     42 O          25.524000   24.361000   11.317000 O.3       1 <1>        -0.449700 
     43 C          25.771000   25.746000   11.081000 C.3       1 <1>         0.143600 
     44 H          25.542000   25.951000   10.031000 H         1 <1>         0.070300 
     45 H          26.826000   25.991000   11.246000 H         1 <1>         0.026100 
     46 H          25.116000   26.373000   11.694000 H         1 <1>         0.024700 
@<TRIPOS>BOND
     1    1    2 2    
     2    2    3 1    
     3    3    4 1    
     4    3    5 1    
     5    3    6 1    
     6    6    7 1    
     7    7    8 1    
     8    7    9 1    
     9    7    1 1    
    10    6   10 1    
    11   10   11 1    
    12   10   12 1    
    13   10   13 1    
    14   13   14 1    
    15   13   15 1    
    16   13    6 1    
    17    2   16 1    
    18   16   17 ar   
    19   17   18 1    
    20   17   19 ar   
    21   19   20 1    
    22   19   21 ar   
    23   21   22 ar   
    24   22   23 1    
    25   22   24 ar   
    26   24   25 1    
    27   24   16 ar   
    28   21   26 1    
    29   26   27 2    
    30   26   28 2    
    31   26   29 1    
    32   29   30 1    
    33   29   31 1    
    34    1   32 1    
    35   32   33 ar   
    36   33   34 1    
    37   33   35 ar   
    38   35   36 1    
    39   35   37 ar   
    40   37   38 ar   
    41   38   39 1    
    42   38   40 ar   
    43   40   41 1    
    44   40   32 ar   
    45   37   42 1    
    46   42   43 1    
    47   43   44 1    
    48   43   45 1    
    49   43   46 1    
@<TRIPOS>SUBSTRUCTURE
     1 ****        1 TEMP              0 ****  ****    0 ROOT 
@<TRIPOS>SET
UNITY_3DHIT     STATIC     ATOMS    <user>   **** Atoms matching 3D or FLEX Search
0
@<TRIPOS>UNITY_BOND_ATTR
1 1
S I
