#	Name:			9-38
#	Creating user name:	jeff
#	Creation time:		Fri Dec 13 09:56:47 2002

#	Modifying user name:	jeff
#	Modification time:	Fri Dec 13 09:56:49 2002

@<TRIPOS>MOLECULE
9-38
   47    50     1     0     1
SMALL
USER_CHARGES
****
From 3DB ct
@<TRIPOS>ATOM
      1 C          26.384000   22.082000   16.421000 C.2       1 <1>        -0.059700 
      2 C          25.493000   21.501000   17.254000 C.2       1 <1>        -0.197100 
      3 C          26.179000   20.924000   18.475000 C.3       1 <1>        -0.055200 
      4 H          26.054000   19.837000   18.521000 H         1 <1>         0.071200 
      5 H          25.774000   21.372000   19.389000 H         1 <1>         0.070200 
      6 C          27.641000   21.277000   18.301000 C.3       1 <1>         0.028500 
      7 C          27.785000   22.029000   16.995000 C.3       1 <1>        -0.072800 
      8 H          28.175000   23.036000   17.178000 H         1 <1>         0.069600 
      9 H          28.458000   21.500000   16.312000 H         1 <1>         0.072200 
     10 C          28.726000   20.336000   18.776000 C.3       1 <1>        -0.316800 
     11 H          29.627000   20.240000   18.178000 H         1 <1>         0.148600 
     12 H          28.436000   19.419000   19.277000 H         1 <1>         0.148100 
     13 C          28.498000   21.631000   19.497000 C.3       1 <1>        -0.308400 
     14 H          28.054000   21.589000   20.485000 H         1 <1>         0.148000 
     15 H          29.246000   22.409000   19.388000 H         1 <1>         0.146800 
     16 C          24.035000   21.387000   17.114000 C.ar      1 <1>         0.311700 
     17 C          23.325000   22.264000   16.280000 C.ar      1 <1>        -0.263900 
     18 H          23.848000   23.037000   15.719000 H         1 <1>         0.176100 
     19 C          21.935000   22.170000   16.157000 C.ar      1 <1>        -0.023500 
     20 H          21.409000   22.859000   15.500000 H         1 <1>         0.191000 
     21 C          21.243000   21.201000   16.886000 C.ar      1 <1>        -0.525900 
     22 C          21.931000   20.320000   17.722000 C.ar      1 <1>         0.002300 
     23 H          21.403000   19.556000   18.288000 H         1 <1>         0.177900 
     24 C          23.322000   20.420000   17.838000 C.ar      1 <1>        -0.303000 
     25 H          23.840000   19.720000   18.491000 H         1 <1>         0.195700 
     26 S          19.478000   21.070000   16.717000 S.o2      1 <1>         2.186400 
     27 O          18.941000   22.413000   16.524000 O.2       1 <1>        -0.970300 
     28 O          18.980000   20.278000   17.838000 O.2       1 <1>        -0.972500 
     29 C          19.267000   20.147000   15.218000 C.3       1 <1>        -0.727300 
     30 H          18.196000   20.024000   15.043000 H         1 <1>         0.237000 
     31 H          19.738000   19.169000   15.332000 H         1 <1>         0.190300 
     32 H          19.717000   20.701000   14.393000 H         1 <1>         0.189000 
     33 C          26.156000   22.705000   15.111000 C.ar      1 <1>         0.080600 
     34 C          26.413000   24.066000   14.910000 C.ar      1 <1>        -0.131100 
     35 H          26.758000   24.693000   15.731000 H         1 <1>         0.187500 
     36 C          26.215000   24.663000   13.656000 C.ar      1 <1>        -0.377500 
     37 H          26.427000   25.726000   13.573000 H         1 <1>         0.219500 
     38 C          25.764000   23.902000   12.579000 C.ar      1 <1>         0.412200 
     39 C          25.515000   22.541000   12.772000 C.ar      1 <1>        -0.292700 
     40 H          25.166000   21.926000   11.944000 H         1 <1>         0.221000 
     41 C          25.712000   21.947000   14.023000 C.ar      1 <1>        -0.137800 
     42 H          25.521000   20.880000   14.131000 H         1 <1>         0.160300 
     43 O          25.530000   24.348000   11.311000 O.3       1 <1>        -0.636400 
     44 C          25.770000   25.721000   11.039000 C.3       1 <1>         1.682100 
     45 F          25.485000   25.961000    9.734000 F         1 <1>        -0.431700 
     46 F          27.068000   26.044000   11.245000 F         1 <1>        -0.459500 
     47 F          24.975000   26.518000   11.790000 F         1 <1>        -0.460800 
@<TRIPOS>BOND
     1    1    2 2    
     2    2    3 1    
     3    3    4 1    
     4    3    5 1    
     5    3    6 1    
     6    6    7 1    
     7    7    8 1    
     8    7    9 1    
     9    7    1 1    
    10    6   10 1    
    11   10   11 1    
    12   10   12 1    
    13   10   13 1    
    14   13   14 1    
    15   13   15 1    
    16   13    6 1    
    17    2   16 1    
    18   16   17 ar   
    19   17   18 1    
    20   17   19 ar   
    21   19   20 1    
    22   19   21 ar   
    23   21   22 ar   
    24   22   23 1    
    25   22   24 ar   
    26   24   25 1    
    27   24   16 ar   
    28   21   26 1    
    29   26   27 2    
    30   26   28 2    
    31   26   29 1    
    32   29   30 1    
    33   29   31 1    
    34   29   32 1    
    35    1   33 1    
    36   33   34 ar   
    37   34   35 1    
    38   34   36 ar   
    39   36   37 1    
    40   36   38 ar   
    41   38   39 ar   
    42   39   40 1    
    43   39   41 ar   
    44   41   42 1    
    45   41   33 ar   
    46   38   43 1    
    47   43   44 1    
    48   44   45 1    
    49   44   46 1    
    50   44   47 1    
@<TRIPOS>SUBSTRUCTURE
     1 ****        1 TEMP              0 ****  ****    0 ROOT 
@<TRIPOS>SET
UNITY_3DHIT     STATIC     ATOMS    <user>   **** Atoms matching 3D or FLEX Search
0
@<TRIPOS>UNITY_BOND_ATTR
1 1
S I
