#	Name:			9-39
#	Creating user name:	jeff
#	Creation time:		Fri Dec 13 09:56:49 2002

#	Modifying user name:	jeff
#	Modification time:	Fri Dec 13 09:56:52 2002

@<TRIPOS>MOLECULE
9-39
   46    49     1     0     1
SMALL
USER_CHARGES
****
From 3DB ct
@<TRIPOS>ATOM
      1 C          26.385000   22.081000   16.420000 C.2       1 <1>        -0.031400 
      2 C          25.493000   21.501000   17.254000 C.2       1 <1>        -0.242600 
      3 C          26.179000   20.925000   18.475000 C.3       1 <1>        -0.069300 
      4 H          26.056000   19.838000   18.522000 H         1 <1>         0.076500 
      5 H          25.773000   21.374000   19.389000 H         1 <1>         0.068600 
      6 C          27.641000   21.281000   18.302000 C.3       1 <1>         0.045300 
      7 C          27.785000   22.028000   16.994000 C.3       1 <1>        -0.075100 
      8 H          28.177000   23.035000   17.172000 H         1 <1>         0.070500 
      9 H          28.457000   21.495000   16.312000 H         1 <1>         0.068900 
     10 C          28.728000   20.344000   18.783000 C.3       1 <1>        -0.313300 
     11 H          29.629000   20.247000   18.187000 H         1 <1>         0.147700 
     12 H          28.438000   19.429000   19.288000 H         1 <1>         0.145100 
     13 C          28.496000   21.642000   19.498000 C.3       1 <1>        -0.313100 
     14 H          28.049000   21.603000   20.485000 H         1 <1>         0.149800 
     15 H          29.241000   22.422000   19.386000 H         1 <1>         0.145400 
     16 C          24.035000   21.387000   17.115000 C.ar      1 <1>         0.407900 
     17 C          23.323000   22.265000   16.282000 C.ar      1 <1>        -0.332800 
     18 H          23.845000   23.039000   15.722000 H         1 <1>         0.184500 
     19 C          21.933000   22.171000   16.162000 C.ar      1 <1>         0.078600 
     20 H          21.403000   22.860000   15.509000 H         1 <1>         0.178100 
     21 C          21.240000   21.202000   16.890000 C.ar      1 <1>        -0.638400 
     22 C          21.930000   20.322000   17.727000 C.ar      1 <1>         0.069300 
     23 H          21.401000   19.560000   18.295000 H         1 <1>         0.177600 
     24 C          23.321000   20.422000   17.841000 C.ar      1 <1>        -0.341900 
     25 H          23.840000   19.722000   18.495000 H         1 <1>         0.196300 
     26 S          19.483000   21.067000   16.709000 S.o2      1 <1>         2.466700 
     27 O          18.925000   22.376000   16.418000 O.2       1 <1>        -1.000400 
     28 O          18.956000   20.267000   17.800000 O.2       1 <1>        -1.002700 
     29 N          19.340000   20.158000   15.310000 N.pl3     1 <1>        -1.314600 
     30 H          18.862000   20.686000   14.575000 H         1 <1>         0.483200 
     31 H          18.871000   19.268000   15.495000 H         1 <1>         0.486300 
     32 C          26.156000   22.704000   15.111000 C.ar      1 <1>         0.054600 
     33 C          26.414000   24.065000   14.910000 C.ar      1 <1>        -0.116900 
     34 H          26.761000   24.690000   15.732000 H         1 <1>         0.181900 
     35 C          26.214000   24.664000   13.658000 C.ar      1 <1>        -0.384900 
     36 H          26.427000   25.727000   13.575000 H         1 <1>         0.219900 
     37 C          25.760000   23.905000   12.581000 C.ar      1 <1>         0.411400 
     38 C          25.511000   22.543000   12.773000 C.ar      1 <1>        -0.291000 
     39 H          25.160000   21.930000   11.944000 H         1 <1>         0.220700 
     40 C          25.710000   21.947000   14.022000 C.ar      1 <1>        -0.121400 
     41 H          25.518000   20.881000   14.130000 H         1 <1>         0.160100 
     42 O          25.522000   24.352000   11.314000 O.3       1 <1>        -0.632700 
     43 C          25.757000   25.726000   11.044000 C.3       1 <1>         1.680900 
     44 F          25.465000   25.968000    9.741000 F         1 <1>        -0.432100 
     45 F          27.056000   26.053000   11.244000 F         1 <1>        -0.460400 
     46 F          24.965000   26.520000   11.801000 F         1 <1>        -0.460400 
@<TRIPOS>BOND
     1    1    2 2    
     2    2    3 1    
     3    3    4 1    
     4    3    5 1    
     5    3    6 1    
     6    6    7 1    
     7    7    8 1    
     8    7    9 1    
     9    7    1 1    
    10    6   10 1    
    11   10   11 1    
    12   10   12 1    
    13   10   13 1    
    14   13   14 1    
    15   13   15 1    
    16   13    6 1    
    17    2   16 1    
    18   16   17 ar   
    19   17   18 1    
    20   17   19 ar   
    21   19   20 1    
    22   19   21 ar   
    23   21   22 ar   
    24   22   23 1    
    25   22   24 ar   
    26   24   25 1    
    27   24   16 ar   
    28   21   26 1    
    29   26   27 2    
    30   26   28 2    
    31   26   29 1    
    32   29   30 1    
    33   29   31 1    
    34    1   32 1    
    35   32   33 ar   
    36   33   34 1    
    37   33   35 ar   
    38   35   36 1    
    39   35   37 ar   
    40   37   38 ar   
    41   38   39 1    
    42   38   40 ar   
    43   40   41 1    
    44   40   32 ar   
    45   37   42 1    
    46   42   43 1    
    47   43   44 1    
    48   43   45 1    
    49   43   46 1    
@<TRIPOS>SUBSTRUCTURE
     1 ****        1 TEMP              0 ****  ****    0 ROOT 
@<TRIPOS>SET
UNITY_3DHIT     STATIC     ATOMS    <user>   **** Atoms matching 3D or FLEX Search
0
@<TRIPOS>UNITY_BOND_ATTR
1 1
S I
