#	Name:			9-40
#	Creating user name:	jeff
#	Creation time:		Fri Dec 13 09:56:52 2002

#	Modifying user name:	jeff
#	Modification time:	Fri Dec 13 09:56:54 2002

@<TRIPOS>MOLECULE
9-40
   46    49     1     0     1
SMALL
USER_CHARGES
****
From 3DB ct
@<TRIPOS>ATOM
      1 C          26.385000   22.082000   16.421000 C.2       1 <1>        -0.156600 
      2 C          25.493000   21.501000   17.253000 C.2       1 <1>        -0.136500 
      3 C          26.179000   20.926000   18.475000 C.3       1 <1>        -0.059200 
      4 H          26.055000   19.839000   18.523000 H         1 <1>         0.070600 
      5 H          25.774000   21.375000   19.388000 H         1 <1>         0.069300 
      6 C          27.641000   21.280000   18.302000 C.3       1 <1>         0.042000 
      7 C          27.785000   22.029000   16.995000 C.3       1 <1>        -0.070800 
      8 H          28.177000   23.036000   17.175000 H         1 <1>         0.076000 
      9 H          28.458000   21.498000   16.313000 H         1 <1>         0.069500 
     10 C          28.727000   20.339000   18.779000 C.3       1 <1>        -0.314200 
     11 H          29.628000   20.243000   18.183000 H         1 <1>         0.148500 
     12 H          28.436000   19.424000   19.282000 H         1 <1>         0.146900 
     13 C          28.497000   21.636000   19.498000 C.3       1 <1>        -0.308900 
     14 H          28.052000   21.595000   20.486000 H         1 <1>         0.148800 
     15 H          29.245000   22.414000   19.387000 H         1 <1>         0.145400 
     16 C          24.035000   21.387000   17.113000 C.ar      1 <1>         0.273100 
     17 C          23.325000   22.264000   16.279000 C.ar      1 <1>        -0.250400 
     18 H          23.847000   23.037000   15.718000 H         1 <1>         0.170400 
     19 C          21.935000   22.170000   16.157000 C.ar      1 <1>        -0.023500 
     20 H          21.408000   22.859000   15.500000 H         1 <1>         0.191200 
     21 C          21.243000   21.201000   16.886000 C.ar      1 <1>        -0.516800 
     22 C          21.931000   20.320000   17.721000 C.ar      1 <1>        -0.002400 
     23 H          21.403000   19.556000   18.288000 H         1 <1>         0.178100 
     24 C          23.322000   20.421000   17.837000 C.ar      1 <1>        -0.288500 
     25 H          23.840000   19.721000   18.490000 H         1 <1>         0.193300 
     26 S          19.478000   21.069000   16.718000 S.o2      1 <1>         2.176700 
     27 O          18.941000   22.413000   16.524000 O.2       1 <1>        -0.966300 
     28 O          18.980000   20.277000   17.838000 O.2       1 <1>        -0.968800 
     29 C          19.266000   20.147000   15.218000 C.3       1 <1>        -0.728300 
     30 H          18.195000   20.023000   15.045000 H         1 <1>         0.239400 
     31 H          19.739000   19.170000   15.331000 H         1 <1>         0.192100 
     32 H          19.713000   20.703000   14.392000 H         1 <1>         0.190500 
     33 C          26.157000   22.706000   15.111000 C.ar      1 <1>         0.305500 
     34 C          26.414000   24.068000   14.914000 C.ar      1 <1>        -0.310700 
     35 H          26.756000   24.694000   15.736000 H         1 <1>         0.194700 
     36 C          26.215000   24.660000   13.661000 C.ar      1 <1>         0.048800 
     37 H          26.411000   25.726000   13.542000 H         1 <1>         0.154800 
     38 C          25.768000   23.899000   12.572000 C.ar      1 <1>        -0.500300 
     39 C          25.511000   22.536000   12.769000 C.ar      1 <1>        -0.001600 
     40 H          25.157000   21.919000   11.943000 H         1 <1>         0.166100 
     41 C          25.710000   21.946000   14.022000 C.ar      1 <1>        -0.264800 
     42 H          25.517000   20.880000   14.134000 H         1 <1>         0.164900 
     43 C          25.534000   24.542000   11.229000 C.3       1 <1>         1.504000 
     44 F          24.264000   25.030000   11.090000 F         1 <1>        -0.465700 
     45 F          25.715000   23.690000   10.174000 F         1 <1>        -0.463300 
     46 F          26.361000   25.603000   10.977000 F         1 <1>        -0.462800 
@<TRIPOS>BOND
     1    1    2 2    
     2    2    3 1    
     3    3    4 1    
     4    3    5 1    
     5    3    6 1    
     6    6    7 1    
     7    7    8 1    
     8    7    9 1    
     9    7    1 1    
    10    6   10 1    
    11   10   11 1    
    12   10   12 1    
    13   10   13 1    
    14   13   14 1    
    15   13   15 1    
    16   13    6 1    
    17    2   16 1    
    18   16   17 ar   
    19   17   18 1    
    20   17   19 ar   
    21   19   20 1    
    22   19   21 ar   
    23   21   22 ar   
    24   22   23 1    
    25   22   24 ar   
    26   24   25 1    
    27   24   16 ar   
    28   21   26 1    
    29   26   27 2    
    30   26   28 2    
    31   26   29 1    
    32   29   30 1    
    33   29   31 1    
    34   29   32 1    
    35    1   33 1    
    36   33   34 ar   
    37   34   35 1    
    38   34   36 ar   
    39   36   37 1    
    40   36   38 ar   
    41   38   39 ar   
    42   39   40 1    
    43   39   41 ar   
    44   41   42 1    
    45   41   33 ar   
    46   38   43 1    
    47   43   44 1    
    48   43   45 1    
    49   43   46 1    
@<TRIPOS>SUBSTRUCTURE
     1 ****        1 TEMP              0 ****  ****    0 ROOT 
@<TRIPOS>SET
UNITY_3DHIT     STATIC     ATOMS    <user>   **** Atoms matching 3D or FLEX Search
0
@<TRIPOS>UNITY_BOND_ATTR
1 1
S I
