#	Name:			9-41
#	Creating user name:	jeff
#	Creation time:		Fri Dec 13 09:56:54 2002

#	Modifying user name:	jeff
#	Modification time:	Fri Dec 13 09:56:57 2002

@<TRIPOS>MOLECULE
9-41
   45    48     1     0     1
SMALL
USER_CHARGES
****
From 3DB ct
@<TRIPOS>ATOM
      1 C          26.385000   22.082000   16.420000 C.2       1 <1>        -0.151700 
      2 C          25.493000   21.502000   17.253000 C.2       1 <1>        -0.158000 
      3 C          26.179000   20.926000   18.475000 C.3       1 <1>        -0.077200 
      4 H          26.054000   19.839000   18.522000 H         1 <1>         0.076200 
      5 H          25.774000   21.376000   19.388000 H         1 <1>         0.068400 
      6 C          27.641000   21.279000   18.301000 C.3       1 <1>         0.059600 
      7 C          27.785000   22.029000   16.994000 C.3       1 <1>        -0.073600 
      8 H          28.178000   23.036000   17.174000 H         1 <1>         0.077000 
      9 H          28.458000   21.498000   16.311000 H         1 <1>         0.067700 
     10 C          28.726000   20.336000   18.775000 C.3       1 <1>        -0.317300 
     11 H          29.626000   20.239000   18.178000 H         1 <1>         0.149300 
     12 H          28.434000   19.420000   19.277000 H         1 <1>         0.146100 
     13 C          28.500000   21.631000   19.497000 C.3       1 <1>        -0.307600 
     14 H          28.056000   21.588000   20.485000 H         1 <1>         0.148000 
     15 H          29.248000   22.408000   19.387000 H         1 <1>         0.143200 
     16 C          24.035000   21.387000   17.113000 C.ar      1 <1>         0.353400 
     17 C          23.324000   22.264000   16.280000 C.ar      1 <1>        -0.325000 
     18 H          23.845000   23.039000   15.720000 H         1 <1>         0.181700 
     19 C          21.934000   22.169000   16.160000 C.ar      1 <1>         0.076300 
     20 H          21.402000   22.859000   15.507000 H         1 <1>         0.180000 
     21 C          21.241000   21.200000   16.888000 C.ar      1 <1>        -0.622000 
     22 C          21.931000   20.320000   17.724000 C.ar      1 <1>         0.059200 
     23 H          21.403000   19.557000   18.292000 H         1 <1>         0.179700 
     24 C          23.322000   20.420000   17.838000 C.ar      1 <1>        -0.319900 
     25 H          23.841000   19.720000   18.491000 H         1 <1>         0.192900 
     26 S          19.484000   21.072000   16.711000 S.o2      1 <1>         2.452800 
     27 O          18.928000   22.383000   16.424000 O.2       1 <1>        -0.996100 
     28 O          18.956000   20.271000   17.802000 O.2       1 <1>        -0.998500 
     29 N          19.334000   20.166000   15.310000 N.pl3     1 <1>        -1.312300 
     30 H          18.856000   20.697000   14.577000 H         1 <1>         0.485300 
     31 H          18.861000   19.277000   15.494000 H         1 <1>         0.487400 
     32 C          26.157000   22.705000   15.111000 C.ar      1 <1>         0.303800 
     33 C          26.414000   24.067000   14.914000 C.ar      1 <1>        -0.309800 
     34 H          26.759000   24.694000   15.735000 H         1 <1>         0.192500 
     35 C          26.212000   24.660000   13.662000 C.ar      1 <1>         0.046800 
     36 H          26.409000   25.725000   13.542000 H         1 <1>         0.155100 
     37 C          25.762000   23.899000   12.574000 C.ar      1 <1>        -0.509900 
     38 C          25.506000   22.535000   12.771000 C.ar      1 <1>         0.008400 
     39 H          25.149000   21.919000   11.946000 H         1 <1>         0.164400 
     40 C          25.708000   21.945000   14.023000 C.ar      1 <1>        -0.258600 
     41 H          25.515000   20.879000   14.136000 H         1 <1>         0.166200 
     42 C          25.522000   24.542000   11.232000 C.3       1 <1>         1.516400 
     43 F          24.250000   25.026000   11.097000 F         1 <1>        -0.467300 
     44 F          25.703000   23.691000   10.176000 F         1 <1>        -0.466200 
     45 F          26.345000   25.606000   10.979000 F         1 <1>        -0.466600 
@<TRIPOS>BOND
     1    1    2 2    
     2    2    3 1    
     3    3    4 1    
     4    3    5 1    
     5    3    6 1    
     6    6    7 1    
     7    7    8 1    
     8    7    9 1    
     9    7    1 1    
    10    6   10 1    
    11   10   11 1    
    12   10   12 1    
    13   10   13 1    
    14   13   14 1    
    15   13   15 1    
    16   13    6 1    
    17    2   16 1    
    18   16   17 ar   
    19   17   18 1    
    20   17   19 ar   
    21   19   20 1    
    22   19   21 ar   
    23   21   22 ar   
    24   22   23 1    
    25   22   24 ar   
    26   24   25 1    
    27   24   16 ar   
    28   21   26 1    
    29   26   27 2    
    30   26   28 2    
    31   26   29 1    
    32   29   30 1    
    33   29   31 1    
    34    1   32 1    
    35   32   33 ar   
    36   33   34 1    
    37   33   35 ar   
    38   35   36 1    
    39   35   37 ar   
    40   37   38 ar   
    41   38   39 1    
    42   38   40 ar   
    43   40   41 1    
    44   40   32 ar   
    45   37   42 1    
    46   42   43 1    
    47   42   44 1    
    48   42   45 1    
@<TRIPOS>SUBSTRUCTURE
     1 ****        1 TEMP              0 ****  ****    0 ROOT 
@<TRIPOS>SET
UNITY_3DHIT     STATIC     ATOMS    <user>   **** Atoms matching 3D or FLEX Search
0
@<TRIPOS>UNITY_BOND_ATTR
1 1
S I
