#	Name:			9-46
#	Creating user name:	jeff
#	Creation time:		Fri Dec 13 09:57:07 2002

#	Modifying user name:	jeff
#	Modification time:	Fri Dec 13 09:57:10 2002

@<TRIPOS>MOLECULE
9-46
   46    50     1     0     1
SMALL
USER_CHARGES
****
From 3DB ct
@<TRIPOS>ATOM
      1 C          26.388000   22.087000   16.422000 C.2       1 <1>         0.033200 
      2 C          25.496000   21.504000   17.253000 C.2       1 <1>        -0.257900 
      3 C          26.182000   20.922000   18.470000 C.3       1 <1>        -0.043000 
      4 H          26.055000   19.835000   18.514000 H         1 <1>         0.073400 
      5 H          25.780000   21.368000   19.386000 H         1 <1>         0.076000 
      6 C          27.645000   21.273000   18.296000 C.3       1 <1>        -0.037600 
      7 C          27.789000   22.030000   16.993000 C.3       1 <1>        -0.009800 
      8 H          28.181000   23.035000   17.178000 H         1 <1>         0.058900 
      9 H          28.460000   21.502000   16.307000 H         1 <1>         0.061700 
     10 C          28.729000   20.326000   18.765000 C.3       1 <1>        -0.321400 
     11 H          29.628000   20.232000   18.165000 H         1 <1>         0.150600 
     12 H          28.438000   19.408000   19.262000 H         1 <1>         0.152700 
     13 C          28.506000   21.619000   19.492000 C.3       1 <1>        -0.294900 
     14 H          28.063000   21.573000   20.481000 H         1 <1>         0.147500 
     15 H          29.255000   22.396000   19.385000 H         1 <1>         0.144900 
     16 C          24.038000   21.391000   17.112000 C.ar      1 <1>         0.352500 
     17 C          23.328000   22.268000   16.277000 C.ar      1 <1>        -0.280500 
     18 H          23.851000   23.042000   15.717000 H         1 <1>         0.186700 
     19 C          21.938000   22.174000   16.153000 C.ar      1 <1>        -0.003900 
     20 H          21.413000   22.863000   15.495000 H         1 <1>         0.184100 
     21 C          21.246000   21.205000   16.882000 C.ar      1 <1>        -0.554700 
     22 C          21.933000   20.325000   17.718000 C.ar      1 <1>         0.030900 
     23 H          21.405000   19.561000   18.284000 H         1 <1>         0.173500 
     24 C          23.324000   20.425000   17.835000 C.ar      1 <1>        -0.341000 
     25 H          23.842000   19.725000   18.489000 H         1 <1>         0.203900 
     26 S          19.481000   21.070000   16.710000 S.o2      1 <1>         2.197000 
     27 O          18.942000   22.413000   16.515000 O.2       1 <1>        -0.973200 
     28 O          18.982000   20.278000   17.830000 O.2       1 <1>        -0.975200 
     29 C          19.273000   20.146000   15.212000 C.3       1 <1>        -0.730400 
     30 H          18.202000   20.023000   15.035000 H         1 <1>         0.234900 
     31 H          19.745000   19.168000   15.328000 H         1 <1>         0.190600 
     32 H          19.724000   20.700000   14.386000 H         1 <1>         0.191300 
     33 C          26.157000   22.718000   15.115000 C.ar      1 <1>         0.013600 
     34 C          26.417000   24.084000   14.930000 C.ar      1 <1>        -0.362000 
     35 H          26.766000   24.715000   15.742000 H         1 <1>         0.254900 
     36 C          26.198000   24.628000   13.680000 C.ar      1 <1>         0.253700 
     37 C          25.747000   23.871000   12.626000 C.ar      1 <1>         0.246000 
     38 C          25.490000   22.526000   12.762000 C.ar      1 <1>        -0.335500 
     39 H          25.139000   21.929000   11.927000 H         1 <1>         0.242500 
     40 C          25.702000   21.948000   14.019000 C.ar      1 <1>        -0.144800 
     41 H          25.516000   20.881000   14.140000 H         1 <1>         0.164400 
     42 O          25.599000   24.599000   11.488000 O.3       1 <1>        -0.407100 
     43 C          26.008000   25.911000   11.943000 C.3       1 <1>         0.273400 
     44 H          26.860000   26.242000   11.339000 H         1 <1>         0.097300 
     45 H          25.175000   26.608000   11.797000 H         1 <1>         0.094500 
     46 O          26.391000   25.931000   13.338000 O.3       1 <1>        -0.411700 
@<TRIPOS>BOND
     1    1    2 2    
     2    2    3 1    
     3    3    4 1    
     4    3    5 1    
     5    3    6 1    
     6    6    7 1    
     7    7    8 1    
     8    7    9 1    
     9    7    1 1    
    10    6   10 1    
    11   10   11 1    
    12   10   12 1    
    13   10   13 1    
    14   13   14 1    
    15   13   15 1    
    16   13    6 1    
    17    2   16 1    
    18   16   17 ar   
    19   17   18 1    
    20   17   19 ar   
    21   19   20 1    
    22   19   21 ar   
    23   21   22 ar   
    24   22   23 1    
    25   22   24 ar   
    26   24   25 1    
    27   24   16 ar   
    28   21   26 1    
    29   26   27 2    
    30   26   28 2    
    31   26   29 1    
    32   29   30 1    
    33   29   31 1    
    34   29   32 1    
    35    1   33 1    
    36   33   34 ar   
    37   34   35 1    
    38   34   36 ar   
    39   36   37 ar   
    40   37   38 ar   
    41   38   39 1    
    42   38   40 ar   
    43   40   41 1    
    44   40   33 ar   
    45   37   42 1    
    46   42   43 1    
    47   43   44 1    
    48   43   45 1    
    49   43   46 1    
    50   46   36 1    
@<TRIPOS>SUBSTRUCTURE
     1 ****        1 TEMP              0 ****  ****    0 ROOT 
@<TRIPOS>SET
UNITY_3DHIT     STATIC     ATOMS    <user>   **** Atoms matching 3D or FLEX Search
0
@<TRIPOS>UNITY_BOND_ATTR
1 1
S I
