#	Name:			9-47
#	Creating user name:	jeff
#	Creation time:		Fri Dec 13 09:57:10 2002

#	Modifying user name:	jeff
#	Modification time:	Fri Dec 13 09:57:12 2002

@<TRIPOS>MOLECULE
9-47
   43    46     1     0     1
SMALL
USER_CHARGES
****
From 3DB ct
@<TRIPOS>ATOM
      1 C          26.387000   22.084000   16.422000 C.2       1 <1>        -0.017700 
      2 C          25.495000   21.503000   17.254000 C.2       1 <1>        -0.251000 
      3 C          26.181000   20.924000   18.474000 C.3       1 <1>        -0.092100 
      4 H          26.055000   19.837000   18.520000 H         1 <1>         0.085900 
      5 H          25.778000   21.373000   19.388000 H         1 <1>         0.089000 
      6 C          27.643000   21.276000   18.299000 C.3       1 <1>        -0.012800 
      7 C          27.788000   22.029000   16.994000 C.3       1 <1>         0.057800 
      8 H          28.180000   23.035000   17.176000 H         1 <1>         0.032600 
      9 H          28.460000   21.498000   16.310000 H         1 <1>         0.042900 
     10 C          28.728000   20.332000   18.772000 C.3       1 <1>        -0.314900 
     11 H          29.628000   20.236000   18.175000 H         1 <1>         0.145700 
     12 H          28.437000   19.416000   19.273000 H         1 <1>         0.149700 
     13 C          28.503000   21.627000   19.495000 C.3       1 <1>        -0.287000 
     14 H          28.060000   21.584000   20.484000 H         1 <1>         0.143700 
     15 H          29.252000   22.404000   19.386000 H         1 <1>         0.141600 
     16 C          24.038000   21.390000   17.113000 C.ar      1 <1>         0.374000 
     17 C          23.329000   22.267000   16.278000 C.ar      1 <1>        -0.296900 
     18 H          23.852000   23.041000   15.718000 H         1 <1>         0.190500 
     19 C          21.939000   22.173000   16.154000 C.ar      1 <1>        -0.005900 
     20 H          21.414000   22.862000   15.496000 H         1 <1>         0.188500 
     21 C          21.246000   21.204000   16.881000 C.ar      1 <1>        -0.532100 
     22 C          21.933000   20.323000   17.718000 C.ar      1 <1>         0.007400 
     23 H          21.404000   19.559000   18.284000 H         1 <1>         0.178300 
     24 C          23.324000   20.424000   17.836000 C.ar      1 <1>        -0.333800 
     25 H          23.841000   19.724000   18.490000 H         1 <1>         0.204800 
     26 S          19.482000   21.070000   16.711000 S.o2      1 <1>         2.190300 
     27 O          18.945000   22.413000   16.510000 O.2       1 <1>        -0.970000 
     28 O          18.982000   20.284000   17.835000 O.2       1 <1>        -0.972500 
     29 C          19.273000   20.139000   15.217000 C.3       1 <1>        -0.726000 
     30 H          18.202000   20.016000   15.041000 H         1 <1>         0.236900 
     31 H          19.744000   19.162000   15.337000 H         1 <1>         0.189800 
     32 H          19.724000   20.689000   14.389000 H         1 <1>         0.188600 
     33 C          26.155000   22.709000   15.114000 C.ar      1 <1>         0.070200 
     34 C          26.414000   24.072000   14.919000 C.ar      1 <1>        -0.404900 
     35 H          26.765000   24.703000   15.731000 H         1 <1>         0.274100 
     36 C          26.203000   24.649000   13.669000 C.ar      1 <1>         0.372600 
     37 C          25.744000   23.885000   12.604000 C.ar      1 <1>         0.371700 
     38 C          25.492000   22.531000   12.773000 C.ar      1 <1>        -0.339400 
     39 H          25.139000   21.934000   11.936000 H         1 <1>         0.247300 
     40 C          25.701000   21.944000   14.024000 C.ar      1 <1>        -0.158400 
     41 H          25.512000   20.877000   14.139000 H         1 <1>         0.175600 
     42 F          25.546000   24.453000   11.406000 F         1 <1>        -0.317700 
     43 F          26.446000   25.957000   13.498000 F         1 <1>        -0.316500 
@<TRIPOS>BOND
     1    1    2 2    
     2    2    3 1    
     3    3    4 1    
     4    3    5 1    
     5    3    6 1    
     6    6    7 1    
     7    7    8 1    
     8    7    9 1    
     9    7    1 1    
    10    6   10 1    
    11   10   11 1    
    12   10   12 1    
    13   10   13 1    
    14   13   14 1    
    15   13   15 1    
    16   13    6 1    
    17    2   16 1    
    18   16   17 ar   
    19   17   18 1    
    20   17   19 ar   
    21   19   20 1    
    22   19   21 ar   
    23   21   22 ar   
    24   22   23 1    
    25   22   24 ar   
    26   24   25 1    
    27   24   16 ar   
    28   21   26 1    
    29   26   27 2    
    30   26   28 2    
    31   26   29 1    
    32   29   30 1    
    33   29   31 1    
    34   29   32 1    
    35    1   33 1    
    36   33   34 ar   
    37   34   35 1    
    38   34   36 ar   
    39   36   37 ar   
    40   37   38 ar   
    41   38   39 1    
    42   38   40 ar   
    43   40   41 1    
    44   40   33 ar   
    45   37   42 1    
    46   36   43 1    
@<TRIPOS>SUBSTRUCTURE
     1 ****        1 TEMP              0 ****  ****    0 ROOT 
@<TRIPOS>SET
UNITY_3DHIT     STATIC     ATOMS    <user>   **** Atoms matching 3D or FLEX Search
0
@<TRIPOS>UNITY_BOND_ATTR
1 1
S I
