#	Name:			9-48
#	Creating user name:	jeff
#	Creation time:		Fri Dec 13 09:57:12 2002

#	Modifying user name:	jeff
#	Modification time:	Fri Dec 13 09:57:15 2002

@<TRIPOS>MOLECULE
9-48
   42    45     1     0     1
SMALL
USER_CHARGES
****
From 3DB ct
@<TRIPOS>ATOM
      1 C          26.387000   22.082000   16.421000 C.2       1 <1>         0.040800 
      2 C          25.496000   21.502000   17.255000 C.2       1 <1>        -0.291800 
      3 C          26.182000   20.925000   18.475000 C.3       1 <1>        -0.071500 
      4 H          26.056000   19.839000   18.524000 H         1 <1>         0.084500 
      5 H          25.780000   21.376000   19.389000 H         1 <1>         0.078900 
      6 C          27.645000   21.277000   18.299000 C.3       1 <1>        -0.008800 
      7 C          27.788000   22.028000   16.992000 C.3       1 <1>        -0.008700 
      8 H          28.180000   23.034000   17.172000 H         1 <1>         0.053400 
      9 H          28.459000   21.496000   16.308000 H         1 <1>         0.059000 
     10 C          28.731000   20.336000   18.773000 C.3       1 <1>        -0.323700 
     11 H          29.631000   20.239000   18.176000 H         1 <1>         0.150600 
     12 H          28.441000   19.420000   19.277000 H         1 <1>         0.152000 
     13 C          28.504000   21.633000   19.493000 C.3       1 <1>        -0.289200 
     14 H          28.061000   21.592000   20.482000 H         1 <1>         0.146000 
     15 H          29.252000   22.410000   19.382000 H         1 <1>         0.142900 
     16 C          24.038000   21.389000   17.114000 C.ar      1 <1>         0.450400 
     17 C          23.329000   22.267000   16.280000 C.ar      1 <1>        -0.352700 
     18 H          23.852000   23.042000   15.721000 H         1 <1>         0.191900 
     19 C          21.939000   22.174000   16.157000 C.ar      1 <1>         0.094200 
     20 H          21.410000   22.863000   15.502000 H         1 <1>         0.175400 
     21 C          21.245000   21.204000   16.884000 C.ar      1 <1>        -0.652500 
     22 C          21.933000   20.324000   17.721000 C.ar      1 <1>         0.079400 
     23 H          21.403000   19.562000   18.288000 H         1 <1>         0.179900 
     24 C          23.324000   20.424000   17.838000 C.ar      1 <1>        -0.372200 
     25 H          23.842000   19.724000   18.492000 H         1 <1>         0.205200 
     26 S          19.488000   21.072000   16.703000 S.o2      1 <1>         2.474600 
     27 O          18.931000   22.382000   16.414000 O.2       1 <1>        -1.001300 
     28 O          18.958000   20.271000   17.792000 O.2       1 <1>        -1.004200 
     29 N          19.346000   20.164000   15.303000 N.pl3     1 <1>        -1.304800 
     30 H          18.866000   20.691000   14.569000 H         1 <1>         0.479800 
     31 H          18.880000   19.272000   15.487000 H         1 <1>         0.482300 
     32 C          26.154000   22.708000   15.114000 C.ar      1 <1>         0.020300 
     33 C          26.412000   24.071000   14.919000 C.ar      1 <1>        -0.362900 
     34 H          26.764000   24.701000   15.732000 H         1 <1>         0.259800 
     35 C          26.200000   24.649000   13.671000 C.ar      1 <1>         0.347800 
     36 C          25.741000   23.886000   12.606000 C.ar      1 <1>         0.383200 
     37 C          25.489000   22.531000   12.773000 C.ar      1 <1>        -0.341300 
     38 H          25.135000   21.935000   11.937000 H         1 <1>         0.246700 
     39 C          25.698000   21.944000   14.025000 C.ar      1 <1>        -0.136800 
     40 H          25.509000   20.877000   14.139000 H         1 <1>         0.175800 
     41 F          25.542000   24.454000   11.408000 F         1 <1>        -0.318900 
     42 F          26.444000   25.957000   13.500000 F         1 <1>        -0.313800 
@<TRIPOS>BOND
     1    1    2 2    
     2    2    3 1    
     3    3    4 1    
     4    3    5 1    
     5    3    6 1    
     6    6    7 1    
     7    7    8 1    
     8    7    9 1    
     9    7    1 1    
    10    6   10 1    
    11   10   11 1    
    12   10   12 1    
    13   10   13 1    
    14   13   14 1    
    15   13   15 1    
    16   13    6 1    
    17    2   16 1    
    18   16   17 ar   
    19   17   18 1    
    20   17   19 ar   
    21   19   20 1    
    22   19   21 ar   
    23   21   22 ar   
    24   22   23 1    
    25   22   24 ar   
    26   24   25 1    
    27   24   16 ar   
    28   21   26 1    
    29   26   27 2    
    30   26   28 2    
    31   26   29 1    
    32   29   30 1    
    33   29   31 1    
    34    1   32 1    
    35   32   33 ar   
    36   33   34 1    
    37   33   35 ar   
    38   35   36 ar   
    39   36   37 ar   
    40   37   38 1    
    41   37   39 ar   
    42   39   40 1    
    43   39   32 ar   
    44   36   41 1    
    45   35   42 1    
@<TRIPOS>SUBSTRUCTURE
     1 ****        1 TEMP              0 ****  ****    0 ROOT 
@<TRIPOS>SET
UNITY_3DHIT     STATIC     ATOMS    <user>   **** Atoms matching 3D or FLEX Search
0
@<TRIPOS>UNITY_BOND_ATTR
1 1
S I
