#	Name:			9-53
#	Creating user name:	jeff
#	Creation time:		Fri Dec 13 09:57:24 2002

#	Modifying user name:	jeff
#	Modification time:	Fri Dec 13 09:57:26 2002

@<TRIPOS>MOLECULE
9-53
   43    46     1     0     1
SMALL
USER_CHARGES
****
From 3DB ct
@<TRIPOS>ATOM
      1 C          26.388000   22.087000   16.427000 C.2       1 <1>         0.116400 
      2 C          25.497000   21.503000   17.259000 C.2       1 <1>        -0.300400 
      3 C          26.185000   20.915000   18.472000 C.3       1 <1>        -0.114400 
      4 H          26.053000   19.829000   18.515000 H         1 <1>         0.094700 
      5 H          25.788000   21.362000   19.391000 H         1 <1>         0.097200 
      6 C          27.649000   21.259000   18.292000 C.3       1 <1>        -0.031500 
      7 C          27.791000   22.022000   16.992000 C.3       1 <1>         0.061300 
      8 H          28.191000   23.023000   17.182000 H         1 <1>         0.053300 
      9 H          28.457000   21.494000   16.301000 H         1 <1>         0.035200 
     10 C          28.731000   20.306000   18.752000 C.3       1 <1>        -0.323300 
     11 H          29.628000   20.210000   18.149000 H         1 <1>         0.148000 
     12 H          28.438000   19.387000   19.247000 H         1 <1>         0.151400 
     13 C          28.516000   21.596000   19.486000 C.3       1 <1>        -0.281000 
     14 H          28.077000   21.549000   20.476000 H         1 <1>         0.143400 
     15 H          29.266000   22.372000   19.378000 H         1 <1>         0.143200 
     16 C          24.040000   21.391000   17.115000 C.ar      1 <1>         0.415600 
     17 C          23.333000   22.268000   16.278000 C.ar      1 <1>        -0.314600 
     18 H          23.856000   23.044000   15.721000 H         1 <1>         0.197100 
     19 C          21.943000   22.175000   16.151000 C.ar      1 <1>        -0.004100 
     20 H          21.419000   22.864000   15.492000 H         1 <1>         0.189100 
     21 C          21.249000   21.206000   16.877000 C.ar      1 <1>        -0.537000 
     22 C          21.933000   20.325000   17.715000 C.ar      1 <1>         0.003000 
     23 H          21.403000   19.561000   18.279000 H         1 <1>         0.179400 
     24 C          23.324000   20.425000   17.836000 C.ar      1 <1>        -0.338400 
     25 H          23.840000   19.724000   18.490000 H         1 <1>         0.204500 
     26 S          19.484000   21.073000   16.705000 S.o2      1 <1>         2.195800 
     27 O          18.949000   22.415000   16.495000 O.2       1 <1>        -0.971500 
     28 O          18.981000   20.294000   17.832000 O.2       1 <1>        -0.973400 
     29 C          19.277000   20.133000   15.215000 C.3       1 <1>        -0.735300 
     30 H          18.206000   20.011000   15.038000 H         1 <1>         0.238300 
     31 H          19.746000   19.156000   15.343000 H         1 <1>         0.192000 
     32 H          19.731000   20.677000   14.385000 H         1 <1>         0.190700 
     33 C          26.152000   22.710000   15.119000 C.ar      1 <1>        -0.346400 
     34 C          26.400000   24.074000   14.898000 C.ar      1 <1>         0.607100 
     35 C          26.193000   24.660000   13.652000 C.ar      1 <1>        -0.602600 
     36 H          26.384000   25.716000   13.505000 H         1 <1>         0.294900 
     37 C          25.735000   23.873000   12.606000 C.ar      1 <1>         0.668500 
     38 C          25.486000   22.518000   12.786000 C.ar      1 <1>        -0.502100 
     39 H          25.132000   21.916000   11.954000 H         1 <1>         0.254100 
     40 C          25.697000   21.936000   14.040000 C.ar      1 <1>         0.053400 
     41 H          25.509000   20.871000   14.162000 H         1 <1>         0.151100 
     42 F          25.532000   24.427000   11.403000 F         1 <1>        -0.361200 
     43 F          26.828000   24.857000   15.900000 F         1 <1>        -0.341100 
@<TRIPOS>BOND
     1    1    2 2    
     2    2    3 1    
     3    3    4 1    
     4    3    5 1    
     5    3    6 1    
     6    6    7 1    
     7    7    8 1    
     8    7    9 1    
     9    7    1 1    
    10    6   10 1    
    11   10   11 1    
    12   10   12 1    
    13   10   13 1    
    14   13   14 1    
    15   13   15 1    
    16   13    6 1    
    17    2   16 1    
    18   16   17 ar   
    19   17   18 1    
    20   17   19 ar   
    21   19   20 1    
    22   19   21 ar   
    23   21   22 ar   
    24   22   23 1    
    25   22   24 ar   
    26   24   25 1    
    27   24   16 ar   
    28   21   26 1    
    29   26   27 2    
    30   26   28 2    
    31   26   29 1    
    32   29   30 1    
    33   29   31 1    
    34   29   32 1    
    35    1   33 1    
    36   33   34 ar   
    37   34   35 ar   
    38   35   36 1    
    39   35   37 ar   
    40   37   38 ar   
    41   38   39 1    
    42   38   40 ar   
    43   40   41 1    
    44   40   33 ar   
    45   37   42 1    
    46   34   43 1    
@<TRIPOS>SUBSTRUCTURE
     1 ****        1 TEMP              0 ****  ****    0 ROOT 
@<TRIPOS>SET
UNITY_3DHIT     STATIC     ATOMS    <user>   **** Atoms matching 3D or FLEX Search
0
@<TRIPOS>UNITY_BOND_ATTR
1 1
S I
