#	Name:			ace_ohleu_agnh2_min
#	Creating user name:	jeff
#	Creation time:		Thu Dec 19 11:49:50 2002

#	Modifying user name:	jeff
#	Modification time:	Thu Dec 19 11:49:50 2002

@<TRIPOS>MOLECULE
ace_ohleu_agnh2_min
   46    45     1     2     0
SMALL
GASTEIGER


@<TRIPOS>ATOM
      1 H1         -0.917000   -0.221000   -3.780000 H         1 <1>         0.062149 
      2 C1         -0.929000   -0.077000   -2.699000 C.3       1 <1>         0.128788 
      3 N2         -0.729000   -1.407000   -2.052000 N.am      1 <1>        -0.171990 
      4 H33         0.220000   -4.619000   -2.694000 H         1 <1>         0.032319 
      5 H32         0.695000   -3.687000   -1.254000 H         1 <1>         0.032319 
      6 H31        -1.009000   -4.141000   -1.498000 H         1 <1>         0.032319 
      7 C3         -0.088000   -3.840000   -1.997000 C.3       1 <1>         0.014356 
      8 C4          0.184000    0.851000   -2.313000 C.2       1 <1>         0.236573 
      9 O5          0.759000    1.635000   -3.077000 O.2       1 <1>        -0.273667 
     10 H62        -3.077000   -0.135000   -2.692000 H         1 <1>         0.029113 
     11 H61        -2.354000    0.614000   -1.247000 H         1 <1>         0.029113 
     12 C6         -2.290000    0.529000   -2.332000 C.3       1 <1>        -0.021079 
     13 O7         -0.173000   -2.457000   -3.955000 O.2       1 <1>        -0.273802 
     14 H8         -1.658000    2.548000   -2.655000 H         1 <1>         0.029619 
     15 C8         -2.501000    1.922000   -2.948000 C.3       1 <1>        -0.044505 
     16 H93        -2.673000    2.869000   -4.880000 H         1 <1>         0.023234 
     17 H92        -1.574000    1.470000   -4.845000 H         1 <1>         0.023234 
     18 H91        -3.336000    1.218000   -4.811000 H         1 <1>         0.023234 
     19 C9         -2.522000    1.866000   -4.482000 C.3       1 <1>        -0.062594 
     20 H103       -3.934000    3.528000   -2.860000 H         1 <1>         0.023234 
     21 H102       -4.639000    1.904000   -2.680000 H         1 <1>         0.023234 
     22 H101       -3.735000    2.636000   -1.333000 H         1 <1>         0.023234 
     23 C10        -3.795000    2.542000   -2.417000 C.3       1 <1>        -0.062594 
     24 H122        5.445000   -0.801000    1.518000 H         1 <1>         0.055765 
     25 H121        4.017000   -0.550000    2.551000 H         1 <1>         0.055765 
     26 C12         4.359000   -0.875000    1.568000 C.3       1 <1>         0.087945 
     27 H14         2.550000    1.302000   -1.346000 H         1 <1>         0.059162 
     28 C14         1.862000    1.274000   -0.502000 C.3       1 <1>         0.096616 
     29 H15        -0.143000    0.345000   -0.253000 H         1 <1>         0.149497 
     30 N15         0.552000    0.778000   -0.973000 N.am      1 <1>        -0.302670 
     31 H163        2.701000    3.044000    0.399000 H         1 <1>         0.025218 
     32 H162        1.357000    3.358000   -0.725000 H         1 <1>         0.025218 
     33 H161        1.028000    2.691000    0.893000 H         1 <1>         0.025218 
     34 C16         1.727000    2.694000    0.057000 C.3       1 <1>        -0.038076 
     35 C17         2.418000    0.347000    0.547000 C.2       1 <1>         0.233478 
     36 O18         1.702000   -0.119000    1.425000 O.2       1 <1>        -0.273780 
     37 H192        4.391000   -4.118000    0.271000 H         1 <1>         0.144978 
     38 H191        5.475000   -2.625000   -0.128000 H         1 <1>         0.144978 
     39 N19         4.658000   -3.074000    0.437000 N.am      1 <1>        -0.328034 
     40 H20         4.411000    0.416000   -0.245000 H         1 <1>         0.149242 
     41 N20         3.770000    0.013000    0.538000 N.am      1 <1>        -0.305207 
     42 O23         3.045000   -2.846000    1.999000 O.2       1 <1>        -0.274312 
     43 C24         3.959000   -2.317000    1.366000 C.2       1 <1>         0.227661 
     44 H33        -0.648000   -2.651000   -0.284000 H         1 <1>         0.241681 
     45 O33        -0.809000   -1.646000   -0.673000 O.3       1 <1>        -0.291782 
     46 C34        -0.321000   -2.560000   -2.749000 C.2       1 <1>         0.235596 
@<TRIPOS>BOND
     1    2    1 1    
     2    2    3 1    
     3    8    2 1    
     4    2   12 1    
     5    3   45 1    
     6    3   46 am   
     7    7    4 1    
     8    7    5 1    
     9    7    6 1    
    10   46    7 1    
    11    8    9 2    
    12   30    8 am   
    13   12   10 1    
    14   12   11 1    
    15   12   15 1    
    16   46   13 2    
    17   15   14 1    
    18   15   19 1    
    19   15   23 1    
    20   19   16 1    
    21   19   17 1    
    22   19   18 1    
    23   23   20 1    
    24   23   21 1    
    25   23   22 1    
    26   26   24 1    
    27   26   25 1    
    28   26   41 1    
    29   43   26 1    
    30   28   27 1    
    31   28   30 1    
    32   28   34 1    
    33   35   28 1    
    34   30   29 1    
    35   34   31 1    
    36   34   32 1    
    37   34   33 1    
    38   35   36 2    
    39   41   35 am   
    40   39   37 1    
    41   39   38 1    
    42   39   43 am   
    43   41   40 1    
    44   43   42 2    
    45   45   44 1    
@<TRIPOS>SUBSTRUCTURE
     1 ****       37 TEMP              0 ****  ****    0 ROOT 
@<TRIPOS>NORMAL
@<TRIPOS>ALT_TYPE
MMFF94_ALT_TYPE_SET 
MMFF94 1 HC 2 CR 3 NC=O 4 HC 5 HC 6 HC 7 CR 8 C=ON 9 O=CN 10 HC 11 HC \
12 CR 13 O=CN 14 HC 15 CR 16 HC 17 HC 18 HC 19 CR 20 HC \
21 HC 22 HC 23 CR 24 HC 25 HC 26 CR 27 HC 28 CR 29 HNCO \
30 NC=O 31 HC 32 HC 33 HC 34 CR 35 C=ON 36 O=CN 37 HNCO \
38 HNCO 39 NC=O 40 HNCO 41 NC=O 42 O=CN 43 C=ON 44 HO \
45 -O- 46 C=ON 
@<TRIPOS>FF_PBC
FORCE_FIELD_SETUP_FEATURE Force Field Setup information
v1.0  0 0.000000 0.000000 0.000000 0.000000 0.000000 0.000000 NONE 0 0 0 0 1 0 0 0 0 0 0 0 0
