#	Name:			bzsag_min
#	Creating user name:	jeff
#	Creation time:		Thu Dec 19 11:49:50 2002

#	Modifying user name:	jeff
#	Modification time:	Thu Dec 19 11:49:50 2002

@<TRIPOS>MOLECULE
bzsag_min
   43    43     1     2     0
SMALL
GASTEIGER


@<TRIPOS>ATOM
      1 H1          2.043000    1.736000   -1.479000 H         1 <1>         0.059161 
      2 C1          1.444000    1.612000   -0.577000 C.3       1 <1>         0.096565 
      3 H2         -0.650000    0.744000   -0.301000 H         1 <1>         0.149447 
      4 N2          0.027000    1.214000   -1.015000 N.am      1 <1>        -0.304009 
      5 H33         0.956000    3.746000   -0.401000 H         1 <1>         0.025218 
      6 H32         0.841000    2.851000    1.133000 H         1 <1>         0.025218 
      7 H31         2.436000    3.271000    0.465000 H         1 <1>         0.025218 
      8 C3          1.417000    2.976000    0.216000 C.3       1 <1>        -0.038077 
      9 C4          2.102000    0.504000    0.298000 C.2       1 <1>         0.233477 
     10 O5          1.401000   -0.359000    0.907000 O.2       1 <1>        -0.273780 
     11 H6          0.450000   -1.332000   -3.416000 H         1 <1>         0.101652 
     12 S6         -0.560000   -1.717000   -3.558000 S.3       1 <1>        -0.177497 
     13 H72         5.289000   -0.424000    1.321000 H         1 <1>         0.055765 
     14 H71         3.870000   -0.420000    2.396000 H         1 <1>         0.055765 
     15 C7          4.210000   -0.570000    1.372000 C.3       1 <1>         0.087945 
     16 H8          4.144000    1.195000   -0.057000 H         1 <1>         0.149242 
     17 N8          3.529000    0.466000    0.470000 N.am      1 <1>        -0.305207 
     18 C9          3.883000   -2.030000    0.946000 C.2       1 <1>         0.227661 
     19 O10         2.812000   -2.625000    1.302000 O.2       1 <1>        -0.274312 
     20 H112       -2.758000   -1.148000   -2.621000 H         1 <1>         0.038121 
     21 H111       -1.462000   -0.882000   -1.431000 H         1 <1>         0.038121 
     22 C11        -1.751000   -0.759000   -2.474000 C.3       1 <1>         0.002089 
     23 H12        -3.827000    3.825000   -0.917000 H         1 <1>         0.062029 
     24 C12        -3.588000    4.002000   -1.965000 C.ar      1 <1>        -0.058552 
     25 H13        -4.050000    6.147000   -1.895000 H         1 <1>         0.061766 
     26 C13        -3.713000    5.323000   -2.523000 C.ar      1 <1>        -0.061501 
     27 H14        -3.471000    6.567000   -4.323000 H         1 <1>         0.061758 
     28 C14        -3.392000    5.560000   -3.912000 C.ar      1 <1>        -0.061742 
     29 H15        -2.741000    4.653000   -5.802000 H         1 <1>         0.061766 
     30 C15        -2.970000    4.478000   -4.751000 C.ar      1 <1>        -0.061501 
     31 H16        -2.539000    2.329000   -4.828000 H         1 <1>         0.062029 
     32 C16        -2.853000    3.158000   -4.194000 C.ar      1 <1>        -0.058552 
     33 C17        -3.148000    2.922000   -2.798000 C.ar      1 <1>        -0.046615 
     34 H182       -2.842000    1.585000   -1.119000 H         1 <1>         0.032069 
     35 H181       -3.882000    0.921000   -2.401000 H         1 <1>         0.032069 
     36 C18        -2.985000    1.505000   -2.196000 C.3       1 <1>        -0.015814 
     37 H19        -1.786000    0.879000   -3.922000 H         1 <1>         0.040523 
     38 C19        -1.733000    0.784000   -2.838000 C.3       1 <1>         0.048238 
     39 C20        -0.413000    1.461000   -2.369000 C.2       1 <1>         0.217782 
     40 O21         0.274000    2.248000   -3.107000 O.2       1 <1>        -0.275458 
     41 H222        4.630000   -3.756000   -0.181000 H         1 <1>         0.144978 
     42 H221        5.757000   -2.242000   -0.172000 H         1 <1>         0.144978 
     43 N22         4.833000   -2.732000    0.133000 N.am      1 <1>        -0.328034 
@<TRIPOS>BOND
     1    2    1 1    
     2    2    9 1    
     3    4    2 1    
     4    2    8 1    
     5    4    3 1    
     6   39    4 am   
     7    8    5 1    
     8    8    6 1    
     9    8    7 1    
    10    9   10 2    
    11    9   17 am   
    12   12   11 1    
    13   22   12 1    
    14   15   13 1    
    15   15   14 1    
    16   17   15 1    
    17   15   18 1    
    18   17   16 1    
    19   18   19 2    
    20   18   43 am   
    21   22   20 1    
    22   22   21 1    
    23   38   22 1    
    24   24   23 1    
    25   24   26 ar   
    26   33   24 ar   
    27   26   25 1    
    28   26   28 ar   
    29   28   27 1    
    30   30   28 ar   
    31   30   29 1    
    32   32   30 ar   
    33   32   31 1    
    34   33   32 ar   
    35   36   33 1    
    36   36   34 1    
    37   36   35 1    
    38   38   36 1    
    39   38   37 1    
    40   38   39 1    
    41   39   40 2    
    42   43   41 1    
    43   43   42 1    
@<TRIPOS>SUBSTRUCTURE
     1 ****       23 TEMP              0 ****  ****    0 ROOT 
@<TRIPOS>NORMAL
@<TRIPOS>ALT_TYPE
MMFF94_ALT_TYPE_SET 
MMFF94 1 HC 2 CR 3 HNCO 4 NC=O 5 HC 6 HC 7 HC 8 CR 9 C=ON 10 O=CN 11 HS \
12 S 13 HC 14 HC 15 CR 16 HNCO 17 NC=O 18 C=ON 19 O=CN \
20 HC 21 HC 22 CR 23 HC 24 CB 25 HC 26 CB 27 HC 28 CB \
29 HC 30 CB 31 HC 32 CB 33 CB 34 HC 35 HC 36 CR 37 HC \
38 CR 39 C=ON 40 O=CN 41 HNCO 42 HNCO 43 NC=O 
@<TRIPOS>FF_PBC
FORCE_FIELD_SETUP_FEATURE Force Field Setup information
v1.0  0 0.000000 0.000000 0.000000 0.000000 0.000000 0.000000 NONE 0 0 0 0 0 0 0 0 0 0 0 0 0
