#	Name:			c6pcltnme_min
#	Creating user name:	jeff
#	Creation time:		Thu Dec 19 11:49:50 2002

#	Modifying user name:	jeff
#	Modification time:	Thu Dec 19 11:49:50 2002

@<TRIPOS>MOLECULE
c6pcltnme_min
   72    73     1     2     0
SMALL
GASTEIGER


@<TRIPOS>ATOM
      1 H12         0.759000   -1.706000   -1.525000 H         1 <1>         0.032622 
      2 H11         0.988000   -3.118000   -2.585000 H         1 <1>         0.032622 
      3 C1          0.250000   -2.464000   -2.120000 C.3       1 <1>        -0.016253 
      4 H22        -0.074000   -3.556000   -0.292000 H         1 <1>         0.026902 
      5 H21        -1.517000   -2.722000   -0.917000 H         1 <1>         0.026902 
      6 C2         -0.639000   -3.307000   -1.190000 C.3       1 <1>        -0.047898 
      7 H32        -1.792000   -5.127000   -1.200000 H         1 <1>         0.026539 
      8 H31        -1.605000   -4.366000   -2.799000 H         1 <1>         0.026539 
      9 C3         -1.100000   -4.609000   -1.864000 C.3       1 <1>        -0.052709 
     10 H42         0.798000   -5.001000   -2.801000 H         1 <1>         0.026520 
     11 H41         0.577000   -5.799000   -1.226000 H         1 <1>         0.026520 
     12 C4          0.091000   -5.531000   -2.164000 C.3       1 <1>        -0.053295 
     13 H52         0.487000   -7.495000   -2.953000 H         1 <1>         0.026265 
     14 H51        -1.153000   -7.283000   -2.293000 H         1 <1>         0.026265 
     15 C5         -0.361000   -6.813000   -2.876000 C.3       1 <1>        -0.055911 
     16 H63        -1.201000   -7.441000   -4.762000 H         1 <1>         0.022978 
     17 H62        -1.740000   -5.835000   -4.215000 H         1 <1>         0.022978 
     18 H61        -0.101000   -6.046000   -4.875000 H         1 <1>         0.022978 
     19 C6         -0.889000   -6.512000   -4.284000 C.3       1 <1>        -0.065276 
     20 P14        -0.701000   -1.636000   -3.429000 P.3       1 <1>         0.001890 
     21 O15         0.164000   -0.840000   -4.318000 O.co2     1 <1>        -0.555842 
     22 O16        -1.379000   -2.628000   -4.271000 O.co2     1 <1>        -0.555842 
     23 H172       -2.888000   -0.879000   -2.805000 H         1 <1>         0.033351 
     24 H171       -1.711000   -0.659000   -1.487000 H         1 <1>         0.033351 
     25 C17        -1.874000   -0.562000   -2.561000 C.3       1 <1>        -0.005162 
     26 H18        -1.736000    0.972000   -4.041000 H         1 <1>         0.039798 
     27 C18        -1.710000    0.910000   -2.953000 C.3       1 <1>         0.040915 
     28 C19        -0.392000    1.436000   -2.471000 C.2       1 <1>         0.217095 
     29 O20         0.383000    2.056000   -3.199000 O.2       1 <1>        -0.275485 
     30 H212       -3.810000    1.319000   -2.701000 H         1 <1>         0.027508 
     31 H211       -2.797000    1.792000   -1.316000 H         1 <1>         0.027508 
     32 C21        -2.860000    1.764000   -2.403000 C.3       1 <1>        -0.039214 
     33 H22        -1.771000    3.570000   -2.763000 H         1 <1>         0.029568 
     34 C22        -2.778000    3.197000   -2.952000 C.3       1 <1>        -0.046020 
     35 H233       -2.953000    4.247000   -4.830000 H         1 <1>         0.023233 
     36 H232       -2.261000    2.613000   -4.966000 H         1 <1>         0.023233 
     37 H231       -4.007000    2.820000   -4.687000 H         1 <1>         0.023233 
     38 C23        -3.017000    3.221000   -4.468000 C.3       1 <1>        -0.062645 
     39 H243       -3.695000    5.120000   -2.641000 H         1 <1>         0.023233 
     40 H242       -4.784000    3.736000   -2.384000 H         1 <1>         0.023233 
     41 H241       -3.545000    4.130000   -1.169000 H         1 <1>         0.023233 
     42 C24        -3.772000    4.112000   -2.235000 C.3       1 <1>        -0.062645 
     43 H25        -0.658000    0.744000   -0.420000 H         1 <1>         0.149468 
     44 N25        -0.003000    1.212000   -1.155000 N.am      1 <1>        -0.303446 
     45 H26         1.920000    1.625000   -1.772000 H         1 <1>         0.059769 
     46 C26         1.373000    1.658000   -0.830000 C.3       1 <1>         0.103341 
     47 C27         2.095000    0.722000    0.100000 C.2       1 <1>         0.233443 
     48 O28         1.524000   -0.054000    0.867000 O.2       1 <1>        -0.273778 
     49 H293        5.363000    0.192000    0.814000 H         1 <1>         0.042593 
     50 H292        4.057000    0.194000    2.023000 H         1 <1>         0.042593 
     51 H291        4.120000   -1.082000    0.784000 H         1 <1>         0.042593 
     52 C29         4.310000   -0.028000    0.986000 C.3       1 <1>         0.000113 
     53 H302        2.453000    3.472000   -0.391000 H         1 <1>         0.033646 
     54 H301        0.798000    3.730000   -0.993000 H         1 <1>         0.033646 
     55 C30         1.424000    3.118000   -0.344000 C.3       1 <1>         0.001132 
     56 H31         3.971000    1.492000   -0.597000 H         1 <1>         0.148412 
     57 N31         3.482000    0.801000    0.090000 N.am      1 <1>        -0.316842 
     58 C32         0.930000    3.238000    1.066000 C.ar      1 <1>        -0.022478 
     59 H53        -1.224000    3.015000    0.816000 H         1 <1>         0.078413 
     60 C53        -0.362000    3.144000    1.470000 C.ar      1 <1>        -0.002357 
     61 C54         1.750000    3.434000    2.229000 C.ar      1 <1>         0.000536 
     62 H55         3.811000    3.582000    1.542000 H         1 <1>         0.062411 
     63 C55         3.138000    3.595000    2.399000 C.ar      1 <1>        -0.052522 
     64 C56         0.920000    3.451000    3.348000 C.ar      1 <1>         0.038452 
     65 H57        -1.300000    3.169000    3.507000 H         1 <1>         0.151632 
     66 N57        -0.407000    3.242000    2.886000 N.am      1 <1>        -0.319787 
     67 H58         4.701000    3.895000    3.834000 H         1 <1>         0.061777 
     68 C58         3.628000    3.769000    3.684000 C.ar      1 <1>        -0.061079 
     69 H59         0.723000    3.638000    5.512000 H         1 <1>         0.063622 
     70 C59         1.396000    3.627000    4.655000 C.ar      1 <1>        -0.039969 
     71 H60         3.183000    3.927000    5.801000 H         1 <1>         0.061816 
     72 C60         2.766000    3.786000    4.804000 C.ar      1 <1>        -0.059972 
@<TRIPOS>BOND
     1    3    1 1    
     2    3    2 1    
     3    3    6 1    
     4   20    3 1    
     5    6    4 1    
     6    6    5 1    
     7    6    9 1    
     8    9    7 1    
     9    9    8 1    
    10    9   12 1    
    11   12   10 1    
    12   12   11 1    
    13   12   15 1    
    14   15   13 1    
    15   15   14 1    
    16   15   19 1    
    17   19   16 1    
    18   19   17 1    
    19   19   18 1    
    20   20   21 ar   
    21   20   22 ar   
    22   25   20 1    
    23   25   23 1    
    24   25   24 1    
    25   27   25 1    
    26   27   26 1    
    27   28   27 1    
    28   27   32 1    
    29   28   29 2    
    30   44   28 am   
    31   32   30 1    
    32   32   31 1    
    33   32   34 1    
    34   34   33 1    
    35   34   38 1    
    36   34   42 1    
    37   38   35 1    
    38   38   36 1    
    39   38   37 1    
    40   42   39 1    
    41   42   40 1    
    42   42   41 1    
    43   44   43 1    
    44   46   44 1    
    45   46   45 1    
    46   47   46 1    
    47   46   55 1    
    48   47   48 2    
    49   57   47 am   
    50   52   49 1    
    51   52   50 1    
    52   52   51 1    
    53   52   57 1    
    54   55   53 1    
    55   55   54 1    
    56   55   58 1    
    57   57   56 1    
    58   58   60 ar   
    59   58   61 ar   
    60   60   59 1    
    61   60   66 1    
    62   61   63 ar   
    63   61   64 ar   
    64   63   62 1    
    65   63   68 ar   
    66   64   66 1    
    67   64   70 ar   
    68   66   65 1    
    69   68   67 1    
    70   68   72 ar   
    71   70   69 1    
    72   70   72 ar   
    73   72   71 1    
@<TRIPOS>SUBSTRUCTURE
     1 ****       49 TEMP              0 ****  ****    0 ROOT 
@<TRIPOS>NORMAL
@<TRIPOS>ALT_TYPE
MMFF94_ALT_TYPE_SET 
MMFF94 1 HC 2 HC 3 CR 4 HC 5 HC 6 CR 7 HC 8 HC 9 CR 10 HC 11 HC 12 CR \
13 HC 14 HC 15 CR 16 HC 17 HC 18 HC 19 CR 20 PO2 21 O2P \
22 O2P 23 HC 24 HC 25 CR 26 HC 27 CR 28 C=ON 29 O=CN \
30 HC 31 HC 32 CR 33 HC 34 CR 35 HC 36 HC 37 HC 38 CR \
39 HC 40 HC 41 HC 42 CR 43 HNCO 44 NC=O 45 HC 46 CR 47 C=ON \
48 O=CN 49 HC 50 HC 51 HC 52 CR 53 HC 54 HC 55 CR 56 HNCO \
57 NC=O 58 C5B 59 HC 60 C5A 61 CB 62 HC 63 CB 64 CB \
65 HNCC 66 NPYL 67 HC 68 CB 69 HC 70 CB 71 HC 72 CB 
@<TRIPOS>FF_PBC
FORCE_FIELD_SETUP_FEATURE Force Field Setup information
v1.0  0 0.000000 0.000000 0.000000 0.000000 0.000000 0.000000 NONE 0 0 0 0 0 0 0 0 0 0 0 0 0
