#	Name:			c6pltnme_min
#	Creating user name:	jeff
#	Creation time:		Thu Dec 19 11:49:50 2002

#	Modifying user name:	jeff
#	Modification time:	Thu Dec 19 11:49:50 2002

@<TRIPOS>MOLECULE
c6pltnme_min
   71    72     1     2     0
SMALL
GASTEIGER


@<TRIPOS>ATOM
      1 H12         0.490000   -1.308000   -1.429000 H         1 <1>         0.034082 
      2 H11         0.925000   -2.783000   -2.326000 H         1 <1>         0.034082 
      3 C1          0.099000   -2.156000   -1.991000 C.3       1 <1>        -0.000954 
      4 H22        -0.287000   -3.132000   -0.110000 H         1 <1>         0.026949 
      5 H21        -1.731000   -2.443000   -0.892000 H         1 <1>         0.026949 
      6 C2         -0.801000   -2.986000   -1.061000 C.3       1 <1>        -0.046522 
      7 H32        -1.790000   -4.897000   -0.983000 H         1 <1>         0.026540 
      8 H31        -1.634000   -4.216000   -2.620000 H         1 <1>         0.026540 
      9 C3         -1.130000   -4.360000   -1.664000 C.3       1 <1>        -0.052662 
     10 H42         0.838000   -4.620000   -2.500000 H         1 <1>         0.026520 
     11 H41         0.597000   -5.414000   -0.925000 H         1 <1>         0.026520 
     12 C4          0.140000   -5.194000   -1.890000 C.3       1 <1>        -0.053294 
     13 H52         0.716000   -7.131000   -2.633000 H         1 <1>         0.026265 
     14 H51        -0.963000   -7.035000   -2.052000 H         1 <1>         0.026265 
     15 C5         -0.182000   -6.514000   -2.604000 C.3       1 <1>        -0.055911 
     16 H63        -0.884000   -7.220000   -4.519000 H         1 <1>         0.022978 
     17 H62        -1.566000   -5.653000   -4.020000 H         1 <1>         0.022978 
     18 H61         0.114000   -5.749000   -4.601000 H         1 <1>         0.022978 
     19 C6         -0.664000   -6.266000   -4.040000 C.3       1 <1>        -0.065276 
     20 P14        -0.782000   -1.528000   -3.452000 P.3       1 <1>         0.072755 
     21 O15         0.170000   -0.820000   -4.338000 O.co2     1 <1>        -0.537872 
     22 O16        -1.314000   -2.659000   -4.241000 O.co2     1 <1>        -0.537872 
     23 H17        -2.926000   -0.737000   -3.321000 H         1 <1>         0.146632 
     24 N17        -1.985000   -0.464000   -2.843000 N.am      1 <1>        -0.327726 
     25 H18        -1.823000    1.160000   -4.107000 H         1 <1>         0.059344 
     26 C18        -1.808000    0.993000   -3.030000 C.3       1 <1>         0.097499 
     27 C19        -0.479000    1.468000   -2.511000 C.2       1 <1>         0.233858 
     28 O20         0.324000    2.074000   -3.221000 O.2       1 <1>        -0.273765 
     29 H212       -3.910000    1.411000   -2.795000 H         1 <1>         0.029026 
     30 H211       -2.926000    1.758000   -1.353000 H         1 <1>         0.029026 
     31 C21        -2.961000    1.814000   -2.441000 C.3       1 <1>        -0.023732 
     32 H22        -1.834000    3.621000   -2.608000 H         1 <1>         0.029618 
     33 C22        -2.833000    3.281000   -2.881000 C.3       1 <1>        -0.044593 
     34 H233       -2.890000    4.466000   -4.685000 H         1 <1>         0.023234 
     35 H232       -2.208000    2.835000   -4.899000 H         1 <1>         0.023234 
     36 H231       -3.965000    3.047000   -4.705000 H         1 <1>         0.023234 
     37 C23        -2.985000    3.417000   -4.403000 C.3       1 <1>        -0.062595 
     38 H243       -3.735000    5.197000   -2.490000 H         1 <1>         0.023234 
     39 H242       -4.858000    3.820000   -2.386000 H         1 <1>         0.023234 
     40 H241       -3.680000    4.108000   -1.083000 H         1 <1>         0.023234 
     41 C24        -3.849000    4.165000   -2.158000 C.3       1 <1>        -0.062595 
     42 H25        -0.760000    0.755000   -0.462000 H         1 <1>         0.149518 
     43 N25        -0.101000    1.223000   -1.194000 N.am      1 <1>        -0.302163 
     44 H26         1.814000    1.624000   -1.830000 H         1 <1>         0.059770 
     45 C26         1.283000    1.656000   -0.878000 C.3       1 <1>         0.103391 
     46 C27         2.015000    0.710000    0.033000 C.2       1 <1>         0.233444 
     47 O28         1.455000   -0.085000    0.788000 O.2       1 <1>        -0.273778 
     48 H293        5.288000    0.215000    0.750000 H         1 <1>         0.042593 
     49 H292        3.978000    0.190000    1.955000 H         1 <1>         0.042593 
     50 H291        4.061000   -1.074000    0.705000 H         1 <1>         0.042593 
     51 C29         4.237000   -0.019000    0.917000 C.3       1 <1>         0.000113 
     52 H302        2.385000    3.460000   -0.448000 H         1 <1>         0.033646 
     53 H301        0.719000    3.734000   -1.013000 H         1 <1>         0.033646 
     54 C30         1.354000    3.112000   -0.382000 C.3       1 <1>         0.001133 
     55 H31         3.882000    1.511000   -0.653000 H         1 <1>         0.148412 
     56 N31         3.401000    0.808000    0.026000 N.am      1 <1>        -0.316842 
     57 C32         0.890000    3.222000    1.038000 C.ar      1 <1>        -0.022478 
     58 H53        -1.271000    3.040000    0.821000 H         1 <1>         0.078413 
     59 C53        -0.396000    3.144000    1.462000 C.ar      1 <1>        -0.002357 
     60 C54         1.733000    3.386000    2.189000 C.ar      1 <1>         0.000536 
     61 H55         3.785000    3.509000    1.470000 H         1 <1>         0.062411 
     62 C55         3.127000    3.519000    2.339000 C.ar      1 <1>        -0.052522 
     63 C56         0.924000    3.400000    3.323000 C.ar      1 <1>         0.038452 
     64 H57        -1.297000    3.156000    3.514000 H         1 <1>         0.151632 
     65 N57        -0.414000    3.222000    2.879000 N.am      1 <1>        -0.319787 
     66 H58         4.719000    3.766000    3.751000 H         1 <1>         0.061777 
     67 C58         3.642000    3.662000    3.618000 C.ar      1 <1>        -0.061079 
     68 H59         0.766000    3.554000    5.493000 H         1 <1>         0.063622 
     69 C59         1.425000    3.545000    4.625000 C.ar      1 <1>        -0.039969 
     70 H60         3.237000    3.793000    5.744000 H         1 <1>         0.061816 
     71 C60         2.799000    3.677000    4.753000 C.ar      1 <1>        -0.059972 
@<TRIPOS>BOND
     1    3    1 1    
     2    3    2 1    
     3    3    6 1    
     4   20    3 1    
     5    6    4 1    
     6    6    5 1    
     7    6    9 1    
     8    9    7 1    
     9    9    8 1    
    10    9   12 1    
    11   12   10 1    
    12   12   11 1    
    13   12   15 1    
    14   15   13 1    
    15   15   14 1    
    16   15   19 1    
    17   19   16 1    
    18   19   17 1    
    19   19   18 1    
    20   20   21 ar   
    21   20   22 ar   
    22   24   20 1    
    23   24   23 1    
    24   26   24 1    
    25   26   25 1    
    26   27   26 1    
    27   26   31 1    
    28   27   28 2    
    29   43   27 am   
    30   31   29 1    
    31   31   30 1    
    32   31   33 1    
    33   33   32 1    
    34   33   37 1    
    35   33   41 1    
    36   37   34 1    
    37   37   35 1    
    38   37   36 1    
    39   41   38 1    
    40   41   39 1    
    41   41   40 1    
    42   43   42 1    
    43   45   43 1    
    44   45   44 1    
    45   46   45 1    
    46   45   54 1    
    47   46   47 2    
    48   56   46 am   
    49   51   48 1    
    50   51   49 1    
    51   51   50 1    
    52   51   56 1    
    53   54   52 1    
    54   54   53 1    
    55   54   57 1    
    56   56   55 1    
    57   57   59 ar   
    58   57   60 ar   
    59   59   58 1    
    60   59   65 1    
    61   60   62 ar   
    62   60   63 ar   
    63   62   61 1    
    64   62   67 ar   
    65   63   65 1    
    66   63   69 ar   
    67   65   64 1    
    68   67   66 1    
    69   67   71 ar   
    70   69   68 1    
    71   69   71 ar   
    72   71   70 1    
@<TRIPOS>SUBSTRUCTURE
     1 ****       48 TEMP              0 ****  ****    0 ROOT 
@<TRIPOS>NORMAL
@<TRIPOS>ALT_TYPE
MMFF94_ALT_TYPE_SET 
MMFF94 1 HC 2 HC 3 CR 4 HC 5 HC 6 CR 7 HC 8 HC 9 CR 10 HC 11 HC 12 CR \
13 HC 14 HC 15 CR 16 HC 17 HC 18 HC 19 CR 20 PO2 21 O2P \
22 O2P 23 HNPO 24 NPO2 25 HC 26 CR 27 C=ON 28 O=CN 29 HC \
30 HC 31 CR 32 HC 33 CR 34 HC 35 HC 36 HC 37 CR 38 HC \
39 HC 40 HC 41 CR 42 HNCO 43 NC=O 44 HC 45 CR 46 C=ON \
47 O=CN 48 HC 49 HC 50 HC 51 CR 52 HC 53 HC 54 CR 55 HNCO \
56 NC=O 57 C5B 58 HC 59 C5A 60 CB 61 HC 62 CB 63 CB \
64 HNCC 65 NPYL 66 HC 67 CB 68 HC 69 CB 70 HC 71 CB 
@<TRIPOS>FF_PBC
FORCE_FIELD_SETUP_FEATURE Force Field Setup information
v1.0  0 0.000000 0.000000 0.000000 0.000000 0.000000 0.000000 NONE 0 0 0 0 1 0 0 0 0 0 0 0 0
