#	Name:			c6poltnme_min
#	Creating user name:	jeff
#	Creation time:		Thu Dec 19 11:49:50 2002

#	Modifying user name:	jeff
#	Modification time:	Thu Dec 19 11:49:50 2002

@<TRIPOS>MOLECULE
c6poltnme_min
   70    71     1     2     0
SMALL
GASTEIGER


@<TRIPOS>ATOM
      1 H12         0.641000   -1.559000   -1.491000 H         1 <1>         0.034776 
      2 H11         0.924000   -2.990000   -2.510000 H         1 <1>         0.034776 
      3 C1          0.162000   -2.338000   -2.084000 C.3       1 <1>         0.007199 
      4 H22        -0.205000   -3.383000   -0.237000 H         1 <1>         0.026970 
      5 H21        -1.643000   -2.602000   -0.940000 H         1 <1>         0.026970 
      6 C2         -0.742000   -3.173000   -1.163000 C.3       1 <1>        -0.045864 
      7 H32        -1.835000   -5.029000   -1.156000 H         1 <1>         0.026540 
      8 H31        -1.636000   -4.298000   -2.767000 H         1 <1>         0.026540 
      9 C3         -1.144000   -4.504000   -1.816000 C.3       1 <1>        -0.052640 
     10 H42         0.793000   -4.852000   -2.689000 H         1 <1>         0.026520 
     11 H41         0.544000   -5.641000   -1.113000 H         1 <1>         0.026520 
     12 C4          0.081000   -5.396000   -2.068000 C.3       1 <1>        -0.053294 
     13 H52         0.554000   -7.354000   -2.828000 H         1 <1>         0.026265 
     14 H51        -1.110000   -7.184000   -2.218000 H         1 <1>         0.026265 
     15 C5         -0.314000   -6.696000   -2.782000 C.3       1 <1>        -0.055911 
     16 H63        -1.080000   -7.362000   -4.686000 H         1 <1>         0.022978 
     17 H62        -1.680000   -5.768000   -4.171000 H         1 <1>         0.022978 
     18 H61        -0.016000   -5.938000   -4.780000 H         1 <1>         0.022978 
     19 C6         -0.808000   -6.421000   -4.208000 C.3       1 <1>        -0.065276 
     20 P14        -0.761000   -1.556000   -3.440000 P.3       1 <1>         0.121303 
     21 O15         0.175000   -0.839000   -4.334000 O.co2     1 <1>        -0.530700 
     22 O16        -1.380000   -2.604000   -4.276000 O.co2     1 <1>        -0.530700 
     23 O17        -1.829000   -0.526000   -2.703000 O.3       1 <1>        -0.328629 
     24 H18        -1.761000    0.990000   -4.051000 H         1 <1>         0.069696 
     25 C18        -1.724000    0.874000   -2.967000 C.3       1 <1>         0.140313 
     26 C19        -0.415000    1.421000   -2.474000 C.2       1 <1>         0.242924 
     27 O20         0.360000    2.046000   -3.198000 O.2       1 <1>        -0.272941 
     28 H212       -3.838000    1.204000   -2.701000 H         1 <1>         0.029754 
     29 H211       -2.838000    1.687000   -1.310000 H         1 <1>         0.029754 
     30 C21        -2.902000    1.673000   -2.398000 C.3       1 <1>        -0.015286 
     31 H22        -1.859000    3.507000   -2.739000 H         1 <1>         0.029640 
     32 C22        -2.857000    3.114000   -2.931000 C.3       1 <1>        -0.043905 
     33 H233       -3.065000    4.181000   -4.796000 H         1 <1>         0.023234 
     34 H232       -2.333000    2.566000   -4.952000 H         1 <1>         0.023234 
     35 H231       -4.082000    2.726000   -4.665000 H         1 <1>         0.023234 
     36 C23        -3.102000    3.150000   -4.446000 C.3       1 <1>        -0.062572 
     37 H243       -3.812000    5.015000   -2.599000 H         1 <1>         0.023234 
     38 H242       -4.870000    3.607000   -2.348000 H         1 <1>         0.023234 
     39 H241       -3.633000    4.016000   -1.136000 H         1 <1>         0.023234 
     40 C24        -3.865000    4.002000   -2.201000 C.3       1 <1>        -0.062572 
     41 H25        -0.687000    0.737000   -0.418000 H         1 <1>         0.149540 
     42 N25        -0.031000    1.202000   -1.155000 N.am      1 <1>        -0.301546 
     43 H26         1.885000    1.622000   -1.781000 H         1 <1>         0.059770 
     44 C26         1.345000    1.654000   -0.835000 C.3       1 <1>         0.103414 
     45 C27         2.078000    0.721000    0.090000 C.2       1 <1>         0.233444 
     46 O28         1.516000   -0.060000    0.858000 O.2       1 <1>        -0.273778 
     47 H293        5.353000    0.215000    0.788000 H         1 <1>         0.042593 
     48 H292        4.052000    0.207000    2.003000 H         1 <1>         0.042593 
     49 H291        4.120000   -1.068000    0.763000 H         1 <1>         0.042593 
     50 C29         4.302000   -0.013000    0.965000 C.3       1 <1>         0.000113 
     51 H302        2.423000    3.472000   -0.408000 H         1 <1>         0.033646 
     52 H301        0.762000    3.725000   -0.996000 H         1 <1>         0.033646 
     53 C30         1.395000    3.114000   -0.352000 C.3       1 <1>         0.001133 
     54 H31         3.944000    1.506000   -0.616000 H         1 <1>         0.148412 
     55 N31         3.464000    0.811000    0.073000 N.am      1 <1>        -0.316842 
     56 C32         0.913000    3.234000    1.062000 C.ar      1 <1>        -0.022478 
     57 H52        -1.243000    3.022000    0.824000 H         1 <1>         0.078413 
     58 C52        -0.376000    3.145000    1.474000 C.ar      1 <1>        -0.002357 
     59 C53         1.742000    3.423000    2.220000 C.ar      1 <1>         0.000536 
     60 H54         3.799000    3.564000    1.519000 H         1 <1>         0.062411 
     61 C54         3.132000    3.577000    2.381000 C.ar      1 <1>        -0.052522 
     62 C55         0.920000    3.439000    3.345000 C.ar      1 <1>         0.038452 
     63 H56        -1.299000    3.167000    3.516000 H         1 <1>         0.151632 
     64 N56        -0.410000    3.238000    2.889000 N.am      1 <1>        -0.319787 
     65 H57         4.706000    3.865000    3.806000 H         1 <1>         0.061777 
     66 C57         3.632000    3.744000    3.663000 C.ar      1 <1>        -0.061079 
     67 H58         0.739000    3.619000    5.511000 H         1 <1>         0.063622 
     68 C58         1.406000    3.609000    4.649000 C.ar      1 <1>        -0.039969 
     69 H59         3.203000    3.897000    5.784000 H         1 <1>         0.061816 
     70 C59         2.777000    3.762000    4.789000 C.ar      1 <1>        -0.059972 
@<TRIPOS>BOND
     1    3    1 1    
     2    3    2 1    
     3    3    6 1    
     4   20    3 1    
     5    6    4 1    
     6    6    5 1    
     7    6    9 1    
     8    9    7 1    
     9    9    8 1    
    10    9   12 1    
    11   12   10 1    
    12   12   11 1    
    13   12   15 1    
    14   15   13 1    
    15   15   14 1    
    16   15   19 1    
    17   19   16 1    
    18   19   17 1    
    19   19   18 1    
    20   20   21 ar   
    21   20   22 ar   
    22   23   20 1    
    23   25   23 1    
    24   25   24 1    
    25   26   25 1    
    26   25   30 1    
    27   26   27 2    
    28   42   26 am   
    29   30   28 1    
    30   30   29 1    
    31   30   32 1    
    32   32   31 1    
    33   32   36 1    
    34   32   40 1    
    35   36   33 1    
    36   36   34 1    
    37   36   35 1    
    38   40   37 1    
    39   40   38 1    
    40   40   39 1    
    41   42   41 1    
    42   44   42 1    
    43   44   43 1    
    44   45   44 1    
    45   44   53 1    
    46   45   46 2    
    47   55   45 am   
    48   50   47 1    
    49   50   48 1    
    50   50   49 1    
    51   50   55 1    
    52   53   51 1    
    53   53   52 1    
    54   53   56 1    
    55   55   54 1    
    56   56   58 ar   
    57   56   59 ar   
    58   58   57 1    
    59   58   64 1    
    60   59   61 ar   
    61   59   62 ar   
    62   61   60 1    
    63   61   66 ar   
    64   62   64 1    
    65   62   68 ar   
    66   64   63 1    
    67   66   65 1    
    68   66   70 ar   
    69   68   67 1    
    70   68   70 ar   
    71   70   69 1    
@<TRIPOS>SUBSTRUCTURE
     1 ****       47 TEMP              0 ****  ****    0 ROOT 
@<TRIPOS>NORMAL
@<TRIPOS>ALT_TYPE
MMFF94_ALT_TYPE_SET 
MMFF94 1 HC 2 HC 3 CR 4 HC 5 HC 6 CR 7 HC 8 HC 9 CR 10 HC 11 HC 12 CR \
13 HC 14 HC 15 CR 16 HC 17 HC 18 HC 19 CR 20 PO3 21 O2P \
22 O2P 23 OPO2 24 HC 25 CR 26 C=ON 27 O=CN 28 HC 29 HC \
30 CR 31 HC 32 CR 33 HC 34 HC 35 HC 36 CR 37 HC 38 HC \
39 HC 40 CR 41 HNCO 42 NC=O 43 HC 44 CR 45 C=ON 46 O=CN \
47 HC 48 HC 49 HC 50 CR 51 HC 52 HC 53 CR 54 HNCO 55 NC=O \
56 C5B 57 HC 58 C5A 59 CB 60 HC 61 CB 62 CB 63 HNCC \
64 NPYL 65 HC 66 CB 67 HC 68 CB 69 HC 70 CB 
@<TRIPOS>FF_PBC
FORCE_FIELD_SETUP_FEATURE Force Field Setup information
v1.0  0 0.000000 0.000000 0.000000 0.000000 0.000000 0.000000 NONE 0 0 0 0 0 0 0 0 0 0 0 0 0
