#	Name:			cbzphe_min
#	Creating user name:	jeff
#	Creation time:		Thu Dec 19 11:49:50 2002

#	Modifying user name:	jeff
#	Modification time:	Thu Dec 19 11:49:50 2002

@<TRIPOS>MOLECULE
cbzphe_min
   38    39     1     2     0
SMALL
GASTEIGER


@<TRIPOS>ATOM
      1 O1          0.072000    2.373000   -1.257000 O.3       1 <1>        -0.295141 
      2 C2          0.120000    1.321000   -2.114000 C.2       1 <1>         0.353040 
      3 O3          0.535000    1.640000   -3.243000 O.2       1 <1>        -0.241339 
      4 H42        -1.064000    1.486000    0.217000 H         1 <1>         0.061655 
      5 H41        -0.690000    3.209000    0.466000 H         1 <1>         0.061655 
      6 C4         -0.947000    2.452000   -0.275000 C.3       1 <1>         0.083653 
      7 C5         -2.221000    2.828000   -0.969000 C.ar      1 <1>        -0.021282 
      8 H6         -2.750000    0.825000   -1.562000 H         1 <1>         0.062101 
      9 C6         -3.009000    1.882000   -1.623000 C.ar      1 <1>        -0.056372 
     10 H7         -4.740000    1.540000   -2.860000 H         1 <1>         0.061767 
     11 C7         -4.121000    2.280000   -2.351000 C.ar      1 <1>        -0.061429 
     12 H8         -5.302000    3.949000   -3.011000 H         1 <1>         0.061758 
     13 C8         -4.439000    3.632000   -2.425000 C.ar      1 <1>        -0.061740 
     14 H9         -1.975000    4.906000   -0.494000 H         1 <1>         0.062101 
     15 C9         -2.572000    4.168000   -1.030000 C.ar      1 <1>        -0.056372 
     16 H10        -3.936000    5.640000   -1.822000 H         1 <1>         0.061767 
     17 C10        -3.675000    4.583000   -1.765000 C.ar      1 <1>        -0.061429 
     18 H11        -1.043000    0.212000   -0.764000 H         1 <1>         0.151608 
     19 N11        -0.345000    0.079000   -1.591000 N.am      1 <1>        -0.283085 
     20 H12         0.960000   -1.468000   -1.678000 H         1 <1>         0.056386 
     21 C12        -0.101000   -1.373000   -1.908000 C.3       1 <1>         0.068673 
     22 C13        -0.141000   -1.801000   -3.355000 C.2       1 <1>         0.062334 
     23 O14        -0.008000   -1.000000   -4.285000 O.co2     1 <1>        -0.547887 
     24 O15        -0.179000   -2.908000   -3.960000 O.co2     1 <1>        -0.547887 
     25 H162       -0.937000   -1.891000    0.008000 H         1 <1>         0.033478 
     26 H161       -1.894000   -2.447000   -1.387000 H         1 <1>         0.033478 
     27 C16        -0.885000   -2.321000   -0.992000 C.3       1 <1>        -0.003842 
     28 C17        -0.215000   -3.664000   -0.917000 C.ar      1 <1>        -0.045253 
     29 H18         1.648000   -2.863000   -0.187000 H         1 <1>         0.062030 
     30 C18         1.106000   -3.762000   -0.481000 C.ar      1 <1>        -0.058503 
     31 H19         2.767000   -5.076000   -0.077000 H         1 <1>         0.061766 
     32 C19         1.734000   -5.004000   -0.419000 C.ar      1 <1>        -0.061500 
     33 H20         1.532000   -7.125000   -0.746000 H         1 <1>         0.061758 
     34 C20         1.042000   -6.153000   -0.795000 C.ar      1 <1>        -0.061742 
     35 H21        -1.935000   -4.744000   -1.638000 H         1 <1>         0.062030 
     36 C21        -0.903000   -4.816000   -1.294000 C.ar      1 <1>        -0.058503 
     37 H22        -0.819000   -6.958000   -1.530000 H         1 <1>         0.061766 
     38 C22        -0.277000   -6.060000   -1.234000 C.ar      1 <1>        -0.061500 
@<TRIPOS>BOND
     1    1    2 1    
     2    1    6 1    
     3    2    3 2    
     4    2   19 am   
     5    6    4 1    
     6    6    5 1    
     7    6    7 1    
     8    7    9 ar   
     9    7   15 ar   
    10    9    8 1    
    11    9   11 ar   
    12   11   10 1    
    13   11   13 ar   
    14   13   12 1    
    15   13   17 ar   
    16   15   14 1    
    17   15   17 ar   
    18   17   16 1    
    19   19   18 1    
    20   19   21 1    
    21   21   20 1    
    22   21   22 1    
    23   21   27 1    
    24   22   23 ar   
    25   22   24 ar   
    26   27   25 1    
    27   27   26 1    
    28   27   28 1    
    29   28   30 ar   
    30   28   36 ar   
    31   30   29 1    
    32   30   32 ar   
    33   32   31 1    
    34   32   34 ar   
    35   34   33 1    
    36   34   38 ar   
    37   36   35 1    
    38   36   38 ar   
    39   38   37 1    
@<TRIPOS>SUBSTRUCTURE
     1 ****        1 TEMP              0 ****  ****    0 ROOT 
@<TRIPOS>NORMAL
@<TRIPOS>ALT_TYPE
MMFF94_ALT_TYPE_SET 
MMFF94 1 OC=O 2 COO 3 O=CN 4 HC 5 HC 6 CR 7 CB 8 HC 9 CB 10 HC 11 CB \
12 HC 13 CB 14 HC 15 CB 16 HC 17 CB 18 HNCO 19 NC=O 20 HC \
21 CR 22 CO2M 23 O2CM 24 O2CM 25 HC 26 HC 27 CR 28 CB \
29 HC 30 CB 31 HC 32 CB 33 HC 34 CB 35 HC 36 CB 37 HC \
38 CB 
@<TRIPOS>FF_PBC
FORCE_FIELD_SETUP_FEATURE Force Field Setup information
v1.0  0 0.000000 0.000000 0.000000 0.000000 0.000000 0.000000 NONE 0 0 0 0 0 0 0 0 0 0 0 0 0
