#	Name:			ch3coch2co_fagnh2_min
#	Creating user name:	jeff
#	Creation time:		Thu Dec 19 11:49:50 2002

#	Modifying user name:	jeff
#	Modification time:	Thu Dec 19 11:49:50 2002

@<TRIPOS>MOLECULE
ch3coch2co_fagnh2_min
   51    51     1     2     0
SMALL
GASTEIGER


@<TRIPOS>ATOM
      1 H1         -1.742000    0.282000   -3.907000 H         1 <1>         0.059769 
      2 C1         -1.578000    0.365000   -2.832000 C.3       1 <1>         0.103310 
      3 H2         -1.824000   -1.030000   -1.148000 H         1 <1>         0.149470 
      4 N2         -1.526000   -0.954000   -2.194000 N.am      1 <1>        -0.303337 
      5 H32        -3.672000    0.607000   -2.413000 H         1 <1>         0.033588 
      6 H31        -2.590000    1.244000   -1.152000 H         1 <1>         0.033588 
      7 C3         -2.749000    1.155000   -2.227000 C.3       1 <1>        -0.000658 
      8 C4         -0.260000    1.056000   -2.616000 C.2       1 <1>         0.234258 
      9 O5          0.273000    1.673000   -3.539000 O.2       1 <1>        -0.273751 
     10 C6         -2.885000    2.532000   -2.806000 C.ar      1 <1>        -0.045141 
     11 H7         -3.462000    3.383000   -0.915000 H         1 <1>         0.062030 
     12 C7         -3.260000    3.579000   -1.968000 C.ar      1 <1>        -0.058501 
     13 H8         -2.388000    1.962000   -4.826000 H         1 <1>         0.062030 
     14 C8         -2.651000    2.783000   -4.159000 C.ar      1 <1>        -0.058501 
     15 H9         -3.682000    5.687000   -1.806000 H         1 <1>         0.061766 
     16 C9         -3.379000    4.874000   -2.465000 C.ar      1 <1>        -0.061500 
     17 H10        -2.554000    4.275000   -5.711000 H         1 <1>         0.061766 
     18 C10        -2.753000    4.079000   -4.658000 C.ar      1 <1>        -0.061500 
     19 H11        -3.177000    6.143000   -4.198000 H         1 <1>         0.061758 
     20 C11        -3.109000    5.126000   -3.810000 C.ar      1 <1>        -0.061742 
     21 H122        5.163000   -0.332000    1.534000 H         1 <1>         0.055765 
     22 H121        3.619000   -0.053000    2.375000 H         1 <1>         0.055765 
     23 C12         4.082000   -0.465000    1.478000 C.3       1 <1>         0.087945 
     24 H132       -0.751000   -4.195000   -2.565000 H         1 <1>         0.043589 
     25 H131       -2.281000   -3.607000   -1.871000 H         1 <1>         0.043589 
     26 C13        -1.229000   -3.374000   -2.031000 C.3       1 <1>         0.082077 
     27 H14         2.322000    1.078000   -1.958000 H         1 <1>         0.059162 
     28 C14         1.718000    1.311000   -1.081000 C.3       1 <1>         0.096615 
     29 H15        -0.302000    0.562000   -0.531000 H         1 <1>         0.149496 
     30 N15         0.309000    0.940000   -1.351000 N.am      1 <1>        -0.302735 
     31 H163        2.884000    3.061000   -0.611000 H         1 <1>         0.025218 
     32 H162        1.491000    3.370000   -1.674000 H         1 <1>         0.025218 
     33 H161        1.236000    3.073000    0.062000 H         1 <1>         0.025218 
     34 C16         1.841000    2.812000   -0.806000 C.3       1 <1>        -0.038077 
     35 C17         2.218000    0.527000    0.101000 C.2       1 <1>         0.233478 
     36 O18         1.395000    0.138000    0.918000 O.2       1 <1>        -0.273780 
     37 H192        4.360000   -3.823000    0.539000 H         1 <1>         0.144978 
     38 H191        5.392000   -2.325000    0.035000 H         1 <1>         0.144978 
     39 N19         4.567000   -2.755000    0.602000 N.am      1 <1>        -0.328034 
     40 H20         4.285000    0.626000   -0.448000 H         1 <1>         0.149242 
     41 N20         3.572000    0.272000    0.296000 N.am      1 <1>        -0.305207 
     42 O21        -0.679000   -2.141000   -4.006000 O.2       1 <1>        -0.275342 
     43 C22        -0.554000   -3.188000   -0.701000 C.2       1 <1>         0.139033 
     44 O23         2.856000   -2.445000    2.049000 O.2       1 <1>        -0.274312 
     45 C24         3.777000   -1.940000    1.407000 C.2       1 <1>         0.227661 
     46 C25        -1.118000   -2.120000   -2.848000 C.2       1 <1>         0.220766 
     47 O26        -1.199000   -3.233000    0.335000 O.2       1 <1>        -0.297200 
     48 H273        1.255000   -2.828000    0.361000 H         1 <1>         0.030590 
     49 H272        1.445000   -3.782000   -1.129000 H         1 <1>         0.030590 
     50 H271        1.153000   -2.029000   -1.226000 H         1 <1>         0.030590 
     51 C27         0.926000   -2.940000   -0.672000 C.3       1 <1>        -0.005577 
@<TRIPOS>BOND
     1    2    1 1    
     2    2    4 1    
     3    2    7 1    
     4    8    2 1    
     5    4    3 1    
     6    4   46 am   
     7    7    5 1    
     8    7    6 1    
     9    7   10 1    
    10    8    9 2    
    11   30    8 am   
    12   10   12 ar   
    13   10   14 ar   
    14   12   11 1    
    15   12   16 ar   
    16   14   13 1    
    17   14   18 ar   
    18   16   15 1    
    19   16   20 ar   
    20   18   17 1    
    21   18   20 ar   
    22   20   19 1    
    23   23   21 1    
    24   23   22 1    
    25   23   41 1    
    26   45   23 1    
    27   26   24 1    
    28   26   25 1    
    29   26   43 1    
    30   46   26 1    
    31   28   27 1    
    32   28   30 1    
    33   28   34 1    
    34   35   28 1    
    35   30   29 1    
    36   34   31 1    
    37   34   32 1    
    38   34   33 1    
    39   35   36 2    
    40   41   35 am   
    41   39   37 1    
    42   39   38 1    
    43   39   45 am   
    44   41   40 1    
    45   46   42 2    
    46   43   47 2    
    47   43   51 1    
    48   45   44 2    
    49   51   48 1    
    50   51   49 1    
    51   51   50 1    
@<TRIPOS>SUBSTRUCTURE
     1 ****       37 TEMP              0 ****  ****    0 ROOT 
@<TRIPOS>NORMAL
@<TRIPOS>ALT_TYPE
MMFF94_ALT_TYPE_SET 
MMFF94 1 HC 2 CR 3 HNCO 4 NC=O 5 HC 6 HC 7 CR 8 C=ON 9 O=CN 10 CB 11 HC \
12 CB 13 HC 14 CB 15 HC 16 CB 17 HC 18 CB 19 HC 20 CB \
21 HC 22 HC 23 CR 24 HC 25 HC 26 CR 27 HC 28 CR 29 HNCO \
30 NC=O 31 HC 32 HC 33 HC 34 CR 35 C=ON 36 O=CN 37 HNCO \
38 HNCO 39 NC=O 40 HNCO 41 NC=O 42 O=CN 43 C=OR 44 O=CN \
45 C=ON 46 C=ON 47 O=CR 48 HC 49 HC 50 HC 51 CR 
@<TRIPOS>FF_PBC
FORCE_FIELD_SETUP_FEATURE Force Field Setup information
v1.0  0 0.000000 0.000000 0.000000 0.000000 0.000000 0.000000 NONE 0 0 0 0 0 0 0 0 0 0 0 0 0
