#	Name:			ch3o2s_fagnh2_min
#	Creating user name:	jeff
#	Creation time:		Thu Dec 19 11:49:50 2002

#	Modifying user name:	jeff
#	Modification time:	Thu Dec 19 11:49:50 2002

@<TRIPOS>MOLECULE
ch3o2s_fagnh2_min
   47    47     1     2     0
SMALL
GASTEIGER


@<TRIPOS>ATOM
      1 H1         -1.826000    1.200000   -3.996000 H         1 <1>         0.061049 
      2 C1         -1.784000    0.943000   -2.938000 C.3       1 <1>         0.117193 
      3 H2         -2.017000   -0.741000   -1.748000 H         1 <1>         0.167722 
      4 N2         -1.961000   -0.522000   -2.814000 N.am      1 <1>        -0.239829 
      5 H32        -3.866000    1.177000   -2.443000 H         1 <1>         0.033628 
      6 H31        -2.744000    1.683000   -1.158000 H         1 <1>         0.033628 
      7 C3         -2.926000    1.686000   -2.233000 C.3       1 <1>         0.000550 
      8 C4         -0.427000    1.388000   -2.443000 C.2       1 <1>         0.235504 
      9 O5          0.412000    1.915000   -3.180000 O.2       1 <1>        -0.273706 
     10 C6         -3.016000    3.105000   -2.714000 C.ar      1 <1>        -0.045099 
     11 H7         -3.823000    3.843000   -0.859000 H         1 <1>         0.062030 
     12 C7         -3.508000    4.098000   -1.870000 C.ar      1 <1>        -0.058501 
     13 H8         -2.251000    2.662000   -4.681000 H         1 <1>         0.062030 
     14 C8         -2.624000    3.436000   -4.011000 C.ar      1 <1>        -0.058501 
     15 H9         -3.990000    6.188000   -1.649000 H         1 <1>         0.061766 
     16 C9         -3.600000    5.416000   -2.312000 C.ar      1 <1>        -0.061500 
     17 H10        -2.395000    5.010000   -5.465000 H         1 <1>         0.061766 
     18 C10        -2.708000    4.754000   -4.453000 C.ar      1 <1>        -0.061500 
     19 H11        -3.252000    6.779000   -3.947000 H         1 <1>         0.061758 
     20 C11        -3.192000    5.746000   -3.603000 C.ar      1 <1>        -0.061742 
     21 H122        4.893000   -0.234000    1.594000 H         1 <1>         0.055765 
     22 H121        3.368000   -0.144000    2.508000 H         1 <1>         0.055765 
     23 C12         3.828000   -0.465000    1.573000 C.3       1 <1>         0.087945 
     24 S13        -0.817000   -1.580000   -3.468000 S.o2      1 <1>         0.036812 
     25 H14         1.940000    1.484000   -1.554000 H         1 <1>         0.059162 
     26 C14         1.302000    1.467000   -0.671000 C.3       1 <1>         0.096615 
     27 H15        -0.811000    0.747000   -0.413000 H         1 <1>         0.149497 
     28 N15        -0.081000    1.153000   -1.113000 N.am      1 <1>        -0.302700 
     29 H163        2.363000    3.060000    0.323000 H         1 <1>         0.025218 
     30 H162        1.014000    3.604000   -0.703000 H         1 <1>         0.025218 
     31 H161        0.684000    2.842000    0.871000 H         1 <1>         0.025218 
     32 C16         1.344000    2.843000    0.004000 C.3       1 <1>        -0.038077 
     33 C17         1.831000    0.413000    0.263000 C.2       1 <1>         0.233478 
     34 O18         1.069000   -0.313000    0.890000 O.2       1 <1>        -0.273780 
     35 H192        4.403000   -3.747000    0.503000 H         1 <1>         0.144978 
     36 H191        5.243000   -2.132000    0.002000 H         1 <1>         0.144978 
     37 N19         4.499000   -2.665000    0.594000 N.am      1 <1>        -0.328034 
     38 H20         3.868000    0.827000   -0.235000 H         1 <1>         0.149242 
     39 N20         3.208000    0.310000    0.462000 N.am      1 <1>        -0.305207 
     40 O21        -1.411000   -2.617000   -4.235000 O.2       1 <1>        -0.155746 
     41 H223        0.775000   -3.021000   -2.449000 H         1 <1>         0.048196 
     42 H222        0.500000   -1.547000   -1.490000 H         1 <1>         0.048196 
     43 H221       -0.702000   -2.859000   -1.468000 H         1 <1>         0.048196 
     44 C22         0.020000   -2.324000   -2.085000 C.3       1 <1>         0.073216 
     45 O23         2.867000   -2.600000    2.144000 O.2       1 <1>        -0.274312 
     46 C24         3.675000   -1.966000    1.464000 C.2       1 <1>         0.227661 
     47 O25         0.116000   -0.880000   -4.275000 O.2       1 <1>        -0.155746 
@<TRIPOS>BOND
     1    2    1 1    
     2    2    4 1    
     3    2    7 1    
     4    8    2 1    
     5    4    3 1    
     6    4   24 1    
     7    7    5 1    
     8    7    6 1    
     9    7   10 1    
    10    8    9 2    
    11   28    8 am   
    12   10   12 ar   
    13   10   14 ar   
    14   12   11 1    
    15   12   16 ar   
    16   14   13 1    
    17   14   18 ar   
    18   16   15 1    
    19   16   20 ar   
    20   18   17 1    
    21   18   20 ar   
    22   20   19 1    
    23   23   21 1    
    24   23   22 1    
    25   23   39 1    
    26   46   23 1    
    27   24   40 2    
    28   24   44 1    
    29   24   47 2    
    30   26   25 1    
    31   26   28 1    
    32   26   32 1    
    33   33   26 1    
    34   28   27 1    
    35   32   29 1    
    36   32   30 1    
    37   32   31 1    
    38   33   34 2    
    39   39   33 am   
    40   37   35 1    
    41   37   36 1    
    42   37   46 am   
    43   39   38 1    
    44   44   41 1    
    45   44   42 1    
    46   44   43 1    
    47   46   45 2    
@<TRIPOS>SUBSTRUCTURE
     1 ****       35 TEMP              0 ****  ****    0 ROOT 
@<TRIPOS>NORMAL
@<TRIPOS>ALT_TYPE
MMFF94_ALT_TYPE_SET 
MMFF94 1 HC 2 CR 3 HNSO 4 NSO2 5 HC 6 HC 7 CR 8 C=ON 9 O=CN 10 CB 11 HC \
12 CB 13 HC 14 CB 15 HC 16 CB 17 HC 18 CB 19 HC 20 CB \
21 HC 22 HC 23 CR 24 SO2N 25 HC 26 CR 27 HNCO 28 NC=O \
29 HC 30 HC 31 HC 32 CR 33 C=ON 34 O=CN 35 HNCO 36 HNCO \
37 NC=O 38 HNCO 39 NC=O 40 O2S 41 HC 42 HC 43 HC 44 CR \
45 O=CN 46 C=ON 47 O2S 
@<TRIPOS>FF_PBC
FORCE_FIELD_SETUP_FEATURE Force Field Setup information
v1.0  0 0.000000 0.000000 0.000000 0.000000 0.000000 0.000000 NONE 0 0 0 0 0 0 0 0 0 0 0 0 0
