#	Name:			cho_ohleu_agnh2_min
#	Creating user name:	jeff
#	Creation time:		Thu Dec 19 11:49:50 2002

#	Modifying user name:	jeff
#	Modification time:	Thu Dec 19 11:49:50 2002

@<TRIPOS>MOLECULE
cho_ohleu_agnh2_min
   43    42     1     2     0
SMALL
GASTEIGER


@<TRIPOS>ATOM
      1 H1         -1.245000   -0.284000   -3.804000 H         1 <1>         0.062141 
      2 C1         -1.099000   -0.073000   -2.745000 C.3       1 <1>         0.128547 
      3 N2         -0.827000   -1.372000   -2.066000 N.am      1 <1>        -0.174352 
      4 H3         -0.090000   -3.415000   -2.202000 H         1 <1>         0.127442 
      5 C3         -0.331000   -2.500000   -2.743000 C.2       1 <1>         0.225716 
      6 C4          0.074000    0.846000   -2.583000 C.2       1 <1>         0.236564 
      7 O5          0.488000    1.533000   -3.518000 O.2       1 <1>        -0.273667 
      8 H62        -3.236000   -0.050000   -2.524000 H         1 <1>         0.029113 
      9 H61        -2.347000    0.702000   -1.177000 H         1 <1>         0.029113 
     10 C6         -2.396000    0.593000   -2.261000 C.3       1 <1>        -0.021088 
     11 O7         -0.178000   -2.428000   -3.950000 O.2       1 <1>        -0.277214 
     12 H8         -1.744000    2.587000   -2.672000 H         1 <1>         0.029619 
     13 C8         -2.626000    1.982000   -2.884000 C.3       1 <1>        -0.044505 
     14 H93        -2.936000    2.916000   -4.806000 H         1 <1>         0.023234 
     15 H92        -1.868000    1.492000   -4.845000 H         1 <1>         0.023234 
     16 H91        -3.626000    1.281000   -4.665000 H         1 <1>         0.023234 
     17 C9         -2.775000    1.913000   -4.411000 C.3       1 <1>        -0.062594 
     18 H103       -4.009000    3.625000   -2.706000 H         1 <1>         0.023234 
     19 H102       -4.733000    2.022000   -2.436000 H         1 <1>         0.023234 
     20 H101       -3.701000    2.754000   -1.184000 H         1 <1>         0.023234 
     21 C10        -3.856000    2.643000   -2.257000 C.3       1 <1>        -0.062594 
     22 H122        5.273000   -0.522000    1.698000 H         1 <1>         0.055765 
     23 H121        3.717000   -0.223000    2.508000 H         1 <1>         0.055765 
     24 C12         4.190000   -0.603000    1.603000 C.3       1 <1>         0.087945 
     25 H14         2.664000    1.181000   -1.788000 H         1 <1>         0.059162 
     26 C14         1.970000    1.314000   -0.958000 C.3       1 <1>         0.096616 
     27 H15         0.012000    0.424000   -0.504000 H         1 <1>         0.149497 
     28 N15         0.624000    0.829000   -1.310000 N.am      1 <1>        -0.302670 
     29 H163        2.939000    3.151000   -0.379000 H         1 <1>         0.025218 
     30 H162        1.577000    3.362000   -1.506000 H         1 <1>         0.025218 
     31 H161        1.266000    2.986000    0.206000 H         1 <1>         0.025218 
     32 C16         1.935000    2.811000   -0.636000 C.3       1 <1>        -0.038076 
     33 C17         2.407000    0.527000    0.244000 C.2       1 <1>         0.233478 
     34 O18         1.545000    0.160000    1.039000 O.2       1 <1>        -0.273780 
     35 H192        4.326000   -3.887000    0.418000 H         1 <1>         0.144978 
     36 H191        5.416000   -2.396000    0.024000 H         1 <1>         0.144978 
     37 N19         4.575000   -2.835000    0.561000 N.am      1 <1>        -0.328034 
     38 H20         4.492000    0.576000   -0.257000 H         1 <1>         0.149242 
     39 N20         3.747000    0.212000    0.451000 N.am      1 <1>        -0.305207 
     40 O23         2.874000   -2.566000    2.027000 O.2       1 <1>        -0.274312 
     41 C24         3.820000   -2.054000    1.427000 C.2       1 <1>         0.227661 
     42 H33        -0.573000   -2.608000   -0.311000 H         1 <1>         0.241673 
     43 O33        -0.784000   -1.607000   -0.687000 O.3       1 <1>        -0.291979 
@<TRIPOS>BOND
     1    2    1 1    
     2    2   10 1    
     3    2    3 1    
     4    6    2 1    
     5    3    5 am   
     6    3   43 1    
     7    5    4 1    
     8    5   11 2    
     9    6    7 2    
    10   28    6 am   
    11   10    8 1    
    12   10    9 1    
    13   10   13 1    
    14   13   12 1    
    15   13   17 1    
    16   13   21 1    
    17   17   14 1    
    18   17   15 1    
    19   17   16 1    
    20   21   18 1    
    21   21   19 1    
    22   21   20 1    
    23   24   22 1    
    24   24   23 1    
    25   24   39 1    
    26   41   24 1    
    27   26   25 1    
    28   26   28 1    
    29   26   32 1    
    30   33   26 1    
    31   28   27 1    
    32   32   29 1    
    33   32   30 1    
    34   32   31 1    
    35   33   34 2    
    36   39   33 am   
    37   37   35 1    
    38   37   36 1    
    39   37   41 am   
    40   39   38 1    
    41   41   40 2    
    42   43   42 1    
@<TRIPOS>SUBSTRUCTURE
     1 ****       35 TEMP              0 ****  ****    0 ROOT 
@<TRIPOS>NORMAL
@<TRIPOS>ALT_TYPE
MMFF94_ALT_TYPE_SET 
MMFF94 1 HC 2 CR 3 NC=O 4 HC 5 C=ON 6 C=ON 7 O=CN 8 HC 9 HC 10 CR 11 O=CN \
12 HC 13 CR 14 HC 15 HC 16 HC 17 CR 18 HC 19 HC 20 HC \
21 CR 22 HC 23 HC 24 CR 25 HC 26 CR 27 HNCO 28 NC=O 29 HC \
30 HC 31 HC 32 CR 33 C=ON 34 O=CN 35 HNCO 36 HNCO 37 NC=O \
38 HNCO 39 NC=O 40 O=CN 41 C=ON 42 HO 43 -O- 
@<TRIPOS>FF_PBC
FORCE_FIELD_SETUP_FEATURE Force Field Setup information
v1.0  0 0.000000 0.000000 0.000000 0.000000 0.000000 0.000000 NONE 0 0 0 0 0 0 0 0 0 0 0 0 0
