#	Name:			cltzncrys_min
#	Creating user name:	jeff
#	Creation time:		Thu Dec 19 11:49:51 2002

#	Modifying user name:	jeff
#	Modification time:	Thu Dec 19 11:49:51 2002

@<TRIPOS>MOLECULE
cltzncrys_min
   66    68     1     2     0
SMALL
GASTEIGER


@<TRIPOS>ATOM
      1 H2         -0.170000   -1.039000   -1.702000 H         1 MAIN        0.052197 
      2 C2         -1.045000   -1.490000   -2.172000 C.3       1 MAIN        0.048189 
      3 H32        -2.387000   -3.024000   -1.489000 H         1 MAIN        0.028698 
      4 H31        -0.779000   -3.614000   -1.974000 H         1 MAIN        0.028698 
      5 C3         -1.317000   -2.819000   -1.458000 C.3       1 MAIN       -0.028290 
      6 H42         0.211000   -2.591000    0.039000 H         1 MAIN        0.031376 
      7 H41        -1.389000   -1.979000    0.522000 H         1 MAIN        0.031376 
      8 C4         -0.862000   -2.780000    0.003000 C.3       1 MAIN       -0.025926 
      9 C5         -1.158000   -4.086000    0.679000 C.ar      1 MAIN       -0.047295 
     10 H6         -0.426000   -5.287000   -0.955000 H         1 MAIN        0.062029 
     11 C6         -0.870000   -5.293000    0.041000 C.ar      1 MAIN       -0.058572 
     12 H7         -1.941000   -3.162000    2.462000 H         1 MAIN        0.062029 
     13 C7         -1.717000   -4.101000    1.956000 C.ar      1 MAIN       -0.058572 
     14 H8         -0.923000   -7.445000    0.163000 H         1 MAIN        0.061766 
     15 C8         -1.147000   -6.506000    0.669000 C.ar      1 MAIN       -0.061501 
     16 H9         -2.428000   -5.320000    3.585000 H         1 MAIN        0.061766 
     17 C9         -1.992000   -5.313000    2.587000 C.ar      1 MAIN       -0.061501 
     18 H10        -1.927000   -7.463000    2.436000 H         1 MAIN        0.061758 
     19 C10        -1.709000   -6.516000    1.943000 C.ar      1 MAIN       -0.061742 
     20 C11        -0.763000   -1.757000   -3.598000 C.2       1 MAIN        0.058672 
     21 O12         0.042000   -1.120000   -4.230000 O.co2     1 MAIN       -0.548201 
     22 O13        -1.316000   -2.733000   -4.326000 O.co2     1 MAIN       -0.548201 
     23 H14        -3.045000   -0.901000   -2.368000 H         1 MAIN        0.123250 
     24 N14        -2.114000   -0.475000   -1.994000 N.3       1 MAIN       -0.297778 
     25 H15        -1.988000    0.631000   -3.758000 H         1 MAIN        0.055651 
     26 C15        -1.893000    0.823000   -2.689000 C.3       1 MAIN        0.085459 
     27 C16        -0.507000    1.384000   -2.486000 C.2       1 MAIN        0.230579 
     28 O17         0.101000    1.893000   -3.435000 O.2       1 MAIN       -0.274085 
     29 H182       -3.944000    1.409000   -2.398000 H         1 MAIN        0.028744 
     30 H181       -2.816000    2.046000   -1.177000 H         1 MAIN        0.028744 
     31 C18        -2.954000    1.837000   -2.238000 C.3       1 MAIN       -0.026674 
     32 H19        -1.809000    3.483000   -2.992000 H         1 MAIN        0.029608 
     33 C19        -2.847000    3.152000   -3.024000 C.3       1 MAIN       -0.044858 
     34 H203       -3.143000    3.895000   -5.029000 H         1 MAIN        0.023234 
     35 H202       -2.558000    2.216000   -4.948000 H         1 MAIN        0.023234 
     36 H201       -4.255000    2.587000   -4.560000 H         1 MAIN        0.023234 
     37 C20        -3.228000    2.948000   -4.497000 C.3       1 MAIN       -0.062604 
     38 H213       -3.630000    5.158000   -2.949000 H         1 MAIN        0.023234 
     39 H212       -4.759000    3.907000   -2.375000 H         1 MAIN        0.023234 
     40 H211       -3.387000    4.404000   -1.355000 H         1 MAIN        0.023234 
     41 C21        -3.719000    4.233000   -2.380000 C.3       1 MAIN       -0.062604 
     42 H22        -0.574000    0.905000   -0.390000 H         1 MAIN        0.149382 
     43 N22         0.030000    1.302000   -1.206000 N.am      1 MAIN       -0.305742 
     44 H23         1.942000    1.761000   -1.898000 H         1 MAIN        0.056315 
     45 C23         1.410000    1.747000   -0.947000 C.3       1 MAIN        0.066643 
     46 C24         2.126000    0.776000   -0.044000 C.2       1 MAIN        0.062261 
     47 O25         1.567000    0.059000    0.782000 O.co2     1 MAIN       -0.547888 
     48 H262        2.484000    3.544000   -0.429000 H         1 MAIN        0.033536 
     49 H261        0.836000    3.823000   -1.040000 H         1 MAIN        0.033536 
     50 C26         1.454000    3.188000   -0.406000 C.3       1 MAIN       -0.002123 
     51 C27         0.943000    3.264000    1.006000 C.ar      1 MAIN       -0.022592 
     52 H28        -1.212000    3.097000    0.738000 H         1 MAIN        0.078413 
     53 C28        -0.353000    3.182000    1.404000 C.ar      1 MAIN       -0.002358 
     54 C29         1.754000    3.399000    2.183000 C.ar      1 MAIN        0.000534 
     55 H30        -1.313000    3.148000    3.434000 H         1 MAIN        0.151632 
     56 N30        -0.414000    3.226000    2.822000 N.am      1 MAIN       -0.319787 
     57 C31         0.916000    3.390000    3.296000 C.ar      1 MAIN        0.038452 
     58 H32         3.824000    3.531000    1.519000 H         1 MAIN        0.062411 
     59 C32         3.144000    3.525000    2.371000 C.ar      1 MAIN       -0.052522 
     60 H33         0.704000    3.499000    5.464000 H         1 MAIN        0.063622 
     61 C33         1.384000    3.507000    4.613000 C.ar      1 MAIN       -0.039969 
     62 H34         4.700000    3.739000    3.829000 H         1 MAIN        0.061777 
     63 C34         3.627000    3.641000    3.666000 C.ar      1 MAIN       -0.061079 
     64 H35         3.167000    3.728000    5.784000 H         1 MAIN        0.061816 
     65 C35         2.755000    3.633000    4.779000 C.ar      1 MAIN       -0.059972 
     66 O36         3.471000    0.727000   -0.155000 O.co2     1 MAIN       -0.547888 
@<TRIPOS>BOND
     1    5    2 1    
     2    2   20 1    
     3    2   24 1    
     4    5    8 1    
     5    8    9 1    
     6    9   11 ar   
     7    9   13 ar   
     8   11   15 ar   
     9   13   17 ar   
    10   15   19 ar   
    11   17   19 ar   
    12   20   21 ar   
    13   20   22 ar   
    14   24   26 1    
    15   26   27 1    
    16   26   31 1    
    17   27   28 2    
    18   27   43 am   
    19   31   33 1    
    20   33   37 1    
    21   33   41 1    
    22   43   45 1    
    23   45   46 1    
    24   45   50 1    
    25   46   47 ar   
    26   46   66 ar   
    27   50   51 1    
    28   51   53 ar   
    29   51   54 ar   
    30   53   56 1    
    31   54   57 ar   
    32   54   59 ar   
    33   56   57 1    
    34   57   61 ar   
    35   59   63 ar   
    36   61   65 ar   
    37   63   65 ar   
    38   65   64 1    
    39   63   62 1    
    40   61   60 1    
    41   59   58 1    
    42   56   55 1    
    43   53   52 1    
    44   50   48 1    
    45   50   49 1    
    46   45   44 1    
    47   43   42 1    
    48   41   38 1    
    49   41   39 1    
    50   41   40 1    
    51   37   34 1    
    52   37   35 1    
    53   37   36 1    
    54   33   32 1    
    55   31   29 1    
    56   31   30 1    
    57   26   25 1    
    58   24   23 1    
    59   19   18 1    
    60   17   16 1    
    61   15   14 1    
    62   13   12 1    
    63   11   10 1    
    64    8    6 1    
    65    8    7 1    
    66    5    3 1    
    67    5    4 1    
    68    2    1 1    
@<TRIPOS>SUBSTRUCTURE
     1 MAIN        1 PERM              0 ****  ****    0 ROOT 
@<TRIPOS>NORMAL
@<TRIPOS>ALT_TYPE
MMFF94_ALT_TYPE_SET 
MMFF94 1 HC 2 CR 3 HC 4 HC 5 CR 6 HC 7 HC 8 CR 9 CB 10 HC 11 CB 12 HC \
13 CB 14 HC 15 CB 16 HC 17 CB 18 HC 19 CB 20 CO2M 21 O2CM \
22 O2CM 23 HNR 24 NR 25 HC 26 CR 27 C=ON 28 O=CN 29 HC \
30 HC 31 CR 32 HC 33 CR 34 HC 35 HC 36 HC 37 CR 38 HC \
39 HC 40 HC 41 CR 42 HNCO 43 NC=O 44 HC 45 CR 46 CO2M \
47 O2CM 48 HC 49 HC 50 CR 51 C5B 52 HC 53 C5A 54 CB \
55 HNCC 56 NPYL 57 CB 58 HC 59 CB 60 HC 61 CB 62 HC 63 CB \
64 HC 65 CB 66 O2CM 
@<TRIPOS>FF_PBC
FORCE_FIELD_SETUP_FEATURE Force Field Setup information
v1.0  0 0.000000 0.000000 0.000000 0.000000 0.000000 0.000000 NONE 0 0 0 0 0 0 0 0 0 0 0 0 0
