#	Name:			dah53_min
#	Creating user name:	jeff
#	Creation time:		Thu Dec 19 11:49:51 2002

#	Modifying user name:	jeff
#	Modification time:	Thu Dec 19 11:49:51 2002

@<TRIPOS>MOLECULE
dah53_min
   90    92     1     2     0
SMALL
GASTEIGER


@<TRIPOS>ATOM
      1 H1          1.842000  -11.923000   -3.654000 H         1 MAIN        0.061767 
      2 C1          1.688000  -11.509000   -4.651000 C.ar      1 MAIN       -0.061429 
      3 H2          0.514000   -9.851000   -3.940000 H         1 MAIN        0.062101 
      4 C2          0.941000  -10.344000   -4.813000 C.ar      1 MAIN       -0.056372 
      5 C3          0.734000   -9.802000   -6.083000 C.ar      1 MAIN       -0.021282 
      6 H4          1.136000  -10.030000   -8.186000 H         1 MAIN        0.062101 
      7 C4          1.289000  -10.443000   -7.189000 C.ar      1 MAIN       -0.056372 
      8 H5          2.472000  -12.098000   -7.904000 H         1 MAIN        0.061767 
      9 C5          2.040000  -11.607000   -7.032000 C.ar      1 MAIN       -0.061429 
     10 H6          2.822000  -13.056000   -5.638000 H         1 MAIN        0.061758 
     11 C6          2.239000  -12.144000   -5.762000 C.ar      1 MAIN       -0.061740 
     12 H72         0.028000   -8.204000   -7.297000 H         1 MAIN        0.061655 
     13 H71        -1.144000   -8.802000   -6.098000 H         1 MAIN        0.061655 
     14 C7         -0.096000   -8.559000   -6.274000 C.3       1 MAIN        0.083653 
     15 O8          0.297163   -7.521932   -5.371330 O.3       1 MAIN       -0.295140 
     16 C9         -0.327615   -7.415191   -4.202074 C.2       1 MAIN        0.353140 
     17 O10        -1.235615   -8.193191   -3.899074 O.2       1 MAIN       -0.241337 
     18 H12        -1.460615   -6.223191   -1.975074 H         1 MAIN        0.059842 
     19 C12        -0.370615   -6.241191   -1.973074 C.3       1 MAIN        0.105411 
     20 H13         0.866385   -5.698191   -3.731074 H         1 MAIN        0.151735 
     21 N13         0.122385   -6.400191   -3.356074 N.am      1 MAIN       -0.279738 
     22 H142        0.229385   -8.292191   -1.757074 H         1 MAIN        0.033589 
     23 H141        1.079385   -7.158191   -0.680074 H         1 MAIN        0.033589 
     24 C14         0.114385   -7.419191   -1.116074 C.3       1 MAIN       -0.000585 
     25 C15         0.150385   -4.947191   -1.399074 C.2       1 MAIN        0.233757 
     26 O16         1.323385   -4.596191   -1.542074 O.2       1 MAIN       -0.273768 
     27 C17        -0.839615   -7.762191   -0.003074 C.ar      1 MAIN       -0.045140 
     28 H18        -1.195615   -9.731191   -0.794074 H         1 MAIN        0.062030 
     29 C18        -1.424615   -9.026191    0.004926 C.ar      1 MAIN       -0.058501 
     30 H19        -0.683615   -5.877191    1.025926 H         1 MAIN        0.062030 
     31 C19        -1.139615   -6.867191    1.021926 C.ar      1 MAIN       -0.058501 
     32 H20        -2.751615  -10.389191    1.016926 H         1 MAIN        0.061766 
     33 C20        -2.298615   -9.398191    1.020926 C.ar      1 MAIN       -0.061500 
     34 H21        -2.252615   -6.522191    2.835926 H         1 MAIN        0.061766 
     35 C21        -2.016615   -7.230191    2.040926 C.ar      1 MAIN       -0.061500 
     36 H22        -3.275615   -8.787191    2.842926 H         1 MAIN        0.061758 
     37 C22        -2.593615   -8.498191    2.042926 C.ar      1 MAIN       -0.061742 
     38 H30        -1.771615   -4.522191   -0.570074 H         1 MAIN        0.148734 
     39 N30        -0.746615   -4.166191   -0.675074 N.am      1 MAIN       -0.313711 
     40 H392       -1.241615   -2.505191    0.523926 H         1 MAIN        0.046248 
     41 H391        0.453385   -3.037191    0.637926 H         1 MAIN        0.046248 
     42 C39        -0.385615   -2.878191   -0.039074 C.3       1 MAIN        0.013403 
     43 H402        0.151385   -0.873191   -0.616074 H         1 MAIN        0.029894 
     44 H401        0.942385   -2.150191   -1.572074 H         1 MAIN        0.029894 
     45 C40         0.011385   -1.842191   -1.096074 C.3       1 MAIN       -0.016647 
     46 H41        -1.785615   -2.546191   -2.003074 H         1 MAIN        0.052238 
     47 C41        -1.083615   -1.727191   -2.156074 C.3       1 MAIN        0.049311 
     48 C42        -0.547615   -1.970191   -3.529074 C.2       1 MAIN        0.058714 
     49 O43        -0.056615   -1.119191   -4.234074 O.co2     1 MAIN       -0.548201 
     50 O44        -0.490615   -3.159191   -4.162074 O.co2     1 MAIN       -0.548201 
     51 H45        -1.837615    0.496809   -3.765074 H         1 MAIN        0.055651 
     52 C45        -1.773615    0.735809   -2.703074 C.3       1 MAIN        0.085459 
     53 H46        -2.990615   -0.886191   -2.240074 H         1 MAIN        0.123250 
     54 N46        -1.990615   -0.547191   -1.972074 N.3       1 MAIN       -0.297743 
     55 H472       -3.838615    1.273809   -2.416074 H         1 MAIN        0.028744 
     56 H471       -2.717615    2.002809   -1.241074 H         1 MAIN        0.028744 
     57 C47        -2.861615    1.740809   -2.289074 C.3       1 MAIN       -0.026674 
     58 C48        -0.407615    1.347809   -2.517074 C.2       1 MAIN        0.230579 
     59 O49         0.160385    1.868809   -3.482074 O.2       1 MAIN       -0.274085 
     60 H50        -1.780615    3.376809   -3.149074 H         1 MAIN        0.029608 
     61 C50        -2.811615    3.024809   -3.132074 C.3       1 MAIN       -0.044858 
     62 H513       -3.193615    3.681809   -5.152074 H         1 MAIN        0.023234 
     63 H512       -2.568615    2.019809   -5.027074 H         1 MAIN        0.023234 
     64 H511       -4.258615    2.369809   -4.594074 H         1 MAIN        0.023234 
     65 C51        -3.239615    2.754809   -4.581074 C.3       1 MAIN       -0.062604 
     66 H523       -3.640615    5.013809   -3.116074 H         1 MAIN        0.023234 
     67 H522       -4.719615    3.762809   -2.453074 H         1 MAIN        0.023234 
     68 H521       -3.328615    4.333809   -1.501074 H         1 MAIN        0.023234 
     69 C52        -3.687615    4.111809   -2.505074 C.3       1 MAIN       -0.062604 
     70 H55         2.057385    1.638809   -2.054074 H         1 MAIN        0.056314 
     71 C55         1.564385    1.767809   -1.090074 C.3       1 MAIN        0.066584 
     72 H56        -0.400615    0.961809   -0.398074 H         1 MAIN        0.149382 
     73 N56         0.169385    1.315809   -1.256074 N.am      1 MAIN       -0.305743 
     74 C58         2.306385    0.911809   -0.100074 C.2       1 MAIN        0.062260 
     75 O59         3.520385    0.742809   -0.124074 O.co2     1 MAIN       -0.547888 
     76 H602        2.688385    3.600809   -0.976074 H         1 MAIN        0.033477 
     77 H601        0.977385    3.812809   -1.421074 H         1 MAIN        0.033477 
     78 C60         1.668385    3.271809   -0.775074 C.3       1 MAIN       -0.003914 
     79 C62         1.334385    3.584809    0.656926 C.ar      1 MAIN       -0.045254 
     80 H63         3.391385    3.945809    1.187926 H         1 MAIN        0.062030 
     81 C63         2.361385    3.908809    1.542926 C.ar      1 MAIN       -0.058503 
     82 H64        -0.789615    3.297809    0.424926 H         1 MAIN        0.062030 
     83 C64         0.019385    3.543809    1.112926 C.ar      1 MAIN       -0.058503 
     84 H65         2.886385    4.439809    3.565926 H         1 MAIN        0.061766 
     85 C65         2.079385    4.186809    2.877926 C.ar      1 MAIN       -0.061500 
     86 H66        -1.292615    3.781809    2.803926 H         1 MAIN        0.061766 
     87 C66        -0.262615    3.817809    2.448926 C.ar      1 MAIN       -0.061500 
     88 H67         0.538385    4.352809    4.377926 H         1 MAIN        0.061758 
     89 C67         0.763385    4.139809    3.332926 C.ar      1 MAIN       -0.061742 
     90 O69         1.575385    0.318809    0.868926 O.co2     1 MAIN       -0.547888 
@<TRIPOS>BOND
     1    2    4 ar   
     2    2   11 ar   
     3    4    5 ar   
     4    5    7 ar   
     5    5   14 1    
     6    7    9 ar   
     7    9   11 ar   
     8   14   15 1    
     9   15   16 1    
    10   16   17 2    
    11   16   21 am   
    12   21   19 1    
    13   19   24 1    
    14   19   25 1    
    15   24   27 1    
    16   25   26 2    
    17   25   39 am   
    18   27   29 ar   
    19   27   31 ar   
    20   29   33 ar   
    21   31   35 ar   
    22   33   37 ar   
    23   35   37 ar   
    24   39   42 1    
    25   42   45 1    
    26   45   47 1    
    27   47   48 1    
    28   47   54 1    
    29   48   49 ar   
    30   48   50 ar   
    31   54   52 1    
    32   52   57 1    
    33   52   58 1    
    34   57   61 1    
    35   58   59 2    
    36   58   73 am   
    37   61   65 1    
    38   61   69 1    
    39   73   71 1    
    40   71   74 1    
    41   71   78 1    
    42   74   75 ar   
    43   74   90 ar   
    44   78   79 1    
    45   79   81 ar   
    46   79   83 ar   
    47   81   85 ar   
    48   83   87 ar   
    49   85   89 ar   
    50   87   89 ar   
    51   89   88 1    
    52   87   86 1    
    53   85   84 1    
    54   83   82 1    
    55   81   80 1    
    56   78   76 1    
    57   78   77 1    
    58   73   72 1    
    59   71   70 1    
    60   69   66 1    
    61   69   67 1    
    62   69   68 1    
    63   65   62 1    
    64   65   63 1    
    65   65   64 1    
    66   61   60 1    
    67   57   55 1    
    68   57   56 1    
    69   54   53 1    
    70   52   51 1    
    71   47   46 1    
    72   45   43 1    
    73   45   44 1    
    74   42   40 1    
    75   42   41 1    
    76   39   38 1    
    77   37   36 1    
    78   35   34 1    
    79   33   32 1    
    80   31   30 1    
    81   29   28 1    
    82   24   22 1    
    83   24   23 1    
    84   21   20 1    
    85   19   18 1    
    86   14   12 1    
    87   14   13 1    
    88   11   10 1    
    89    9    8 1    
    90    7    6 1    
    91    4    3 1    
    92    2    1 1    
@<TRIPOS>SUBSTRUCTURE
     1 MAIN        1 PERM              0 ****  ****    0 ROOT 
@<TRIPOS>NORMAL
@<TRIPOS>ALT_TYPE
MMFF94_ALT_TYPE_SET 
MMFF94 1 HC 2 CB 3 HC 4 CB 5 CB 6 HC 7 CB 8 HC 9 CB 10 HC 11 CB 12 HC \
13 HC 14 CR 15 OC=O 16 COO 17 O=CN 18 HC 19 CR 20 HNCO \
21 NC=O 22 HC 23 HC 24 CR 25 C=ON 26 O=CN 27 CB 28 HC \
29 CB 30 HC 31 CB 32 HC 33 CB 34 HC 35 CB 36 HC 37 CB \
38 HNCO 39 NC=O 40 HC 41 HC 42 CR 43 HC 44 HC 45 CR 46 HC \
47 CR 48 CO2M 49 O2CM 50 O2CM 51 HC 52 CR 53 HNR 54 NR \
55 HC 56 HC 57 CR 58 C=ON 59 O=CN 60 HC 61 CR 62 HC 63 HC \
64 HC 65 CR 66 HC 67 HC 68 HC 69 CR 70 HC 71 CR 72 HNCO \
73 NC=O 74 CO2M 75 O2CM 76 HC 77 HC 78 CR 79 CB 80 HC \
81 CB 82 HC 83 CB 84 HC 85 CB 86 HC 87 CB 88 HC 89 CB \
90 O2CM 
@<TRIPOS>FF_PBC
FORCE_FIELD_SETUP_FEATURE Force Field Setup information
v1.0  0 0.000000 0.000000 0.000000 0.000000 0.000000 0.000000 NONE 0 0 0 0 0 0 0 0 0 0 0 0 0
