#	Name:			dah54_min
#	Creating user name:	jeff
#	Creation time:		Thu Dec 19 11:49:51 2002

#	Modifying user name:	jeff
#	Modification time:	Thu Dec 19 11:49:51 2002

@<TRIPOS>MOLECULE
dah54_min
   67    68     1     2     0
SMALL
GASTEIGER


@<TRIPOS>ATOM
      1 H2         -0.367000   -0.749000   -1.899000 H         1 MAIN        0.052197 
      2 C2         -1.247000   -1.290000   -2.247000 C.3       1 MAIN        0.048189 
      3 H32        -1.922000   -2.199000   -0.425000 H         1 MAIN        0.028698 
      4 H31        -1.846000   -3.305000   -1.817000 H         1 MAIN        0.028698 
      5 C3         -1.339000   -2.491000   -1.298000 C.3       1 MAIN       -0.028290 
      6 H42         0.518000   -3.536000   -1.634000 H         1 MAIN        0.031376 
      7 H41         0.647000   -2.145000   -0.531000 H         1 MAIN        0.031376 
      8 C4          0.027000   -2.991000   -0.827000 C.3       1 MAIN       -0.025917 
      9 C5         -0.179000   -3.906000    0.351000 C.ar      1 MAIN       -0.046998 
     10 H6         -0.888000   -5.551000   -0.850000 H         1 MAIN        0.062029 
     11 C6         -0.674000   -5.195000    0.158000 C.ar      1 MAIN       -0.058554 
     12 H7          0.480000   -2.453000    1.796000 H         1 MAIN        0.062341 
     13 C7          0.090000   -3.459000    1.645000 C.ar      1 MAIN       -0.054171 
     14 H8         -1.283000   -7.037000    1.100000 H         1 MAIN        0.061775 
     15 C8         -0.897000   -6.029000    1.252000 C.ar      1 MAIN       -0.061204 
     16 C9         -0.132000   -4.283000    2.750000 C.ar      1 MAIN       -0.033533 
     17 H10        -0.802000   -6.228000    3.395000 H         1 MAIN        0.062070 
     18 C10        -0.626000   -5.572000    2.542000 C.ar      1 MAIN       -0.057340 
     19 C11        -0.987000   -1.688000   -3.648000 C.2       1 MAIN        0.058672 
     20 O12         0.041000   -1.312000   -4.145000 O.co2     1 MAIN       -0.548201 
     21 O13        -1.690000   -2.407000   -4.533000 O.co2     1 MAIN       -0.548201 
     22 H14        -3.222000   -0.689000   -2.624000 H         1 MAIN        0.123250 
     23 N14        -2.338000   -0.293000   -2.125000 N.3       1 MAIN       -0.297778 
     24 H15        -2.135000    0.925000   -3.800000 H         1 MAIN        0.055651 
     25 C15        -2.017000    1.030000   -2.721000 C.3       1 MAIN        0.085459 
     26 C16        -0.583000    1.458000   -2.513000 C.2       1 MAIN        0.230579 
     27 O17         0.046000    1.930000   -3.467000 O.2       1 MAIN       -0.274085 
     28 H182       -4.017000    1.753000   -2.382000 H         1 MAIN        0.028744 
     29 H181       -2.842000    2.222000   -1.129000 H         1 MAIN        0.028744 
     30 C18        -2.997000    2.092000   -2.200000 C.3       1 MAIN       -0.026674 
     31 H19        -1.739000    3.721000   -2.793000 H         1 MAIN        0.029608 
     32 C19        -2.787000    3.442000   -2.902000 C.3       1 MAIN       -0.044858 
     33 H203       -2.937000    4.308000   -4.874000 H         1 MAIN        0.023234 
     34 H202       -2.432000    2.602000   -4.859000 H         1 MAIN        0.023234 
     35 H201       -4.130000    3.030000   -4.542000 H         1 MAIN        0.023234 
     36 C20        -3.094000    3.338000   -4.403000 C.3       1 MAIN       -0.062604 
     37 H213       -3.490000    5.475000   -2.758000 H         1 MAIN        0.023234 
     38 H212       -4.702000    4.245000   -2.324000 H         1 MAIN        0.023234 
     39 H211       -3.376000    4.624000   -1.199000 H         1 MAIN        0.023234 
     40 C21        -3.651000    4.525000   -2.249000 C.3       1 MAIN       -0.062604 
     41 H22        -0.612000    0.973000   -0.407000 H         1 MAIN        0.149382 
     42 N22        -0.011000    1.312000   -1.252000 N.am      1 MAIN       -0.305743 
     43 H23         1.895000    1.468000   -2.045000 H         1 MAIN        0.056314 
     44 C23         1.417000    1.622000   -1.078000 C.3       1 MAIN        0.066584 
     45 C24         2.079000    0.673000   -0.113000 C.2       1 MAIN        0.062260 
     46 O25         1.485000   -0.003000    0.720000 O.co2     1 MAIN       -0.547888 
     47 H272        2.715000    3.328000   -0.890000 H         1 MAIN        0.033477 
     48 H271        1.048000    3.722000   -1.374000 H         1 MAIN        0.033477 
     49 C27         1.663000    3.098000   -0.724000 C.3       1 MAIN       -0.003914 
     50 C29         1.320000    3.404000    0.706000 C.ar      1 MAIN       -0.045254 
     51 H30        -0.808000    3.516000    0.368000 H         1 MAIN        0.062030 
     52 C30        -0.005000    3.580000    1.102000 C.ar      1 MAIN       -0.058503 
     53 H31         3.379000    3.367000    1.338000 H         1 MAIN        0.062030 
     54 C31         2.342000    3.498000    1.648000 C.ar      1 MAIN       -0.058503 
     55 H32        -1.335000    3.971000    2.748000 H         1 MAIN        0.061766 
     56 C32        -0.299000    3.837000    2.437000 C.ar      1 MAIN       -0.061500 
     57 H33         2.850000    3.828000    3.719000 H         1 MAIN        0.061766 
     58 C33         2.047000    3.757000    2.985000 C.ar      1 MAIN       -0.061500 
     59 H34         0.486000    4.127000    4.425000 H         1 MAIN        0.061758 
     60 C34         0.723000    3.926000    3.380000 C.ar      1 MAIN       -0.061742 
     61 O36         3.426000    0.605000   -0.177000 O.co2     1 MAIN       -0.547888 
     62 H592       -0.176000   -4.544000    4.860000 H         1 MAIN        0.047127 
     63 H591        1.245000   -3.664000    4.248000 H         1 MAIN        0.047127 
     64 C59         0.168000   -3.797000    4.145000 C.3       1 MAIN        0.018552 
     65 H622       -0.263000   -2.193000    5.452000 H         1 MAIN        0.118519 
     66 H621       -0.163000   -1.751000    3.731000 H         1 MAIN        0.118519 
     67 N62        -0.505000   -2.508000    4.437000 N.3       1 MAIN       -0.326104 
@<TRIPOS>BOND
     1    5    2 1    
     2    2   19 1    
     3    2   23 1    
     4    5    8 1    
     5    8    9 1    
     6    9   11 ar   
     7    9   13 ar   
     8   11   15 ar   
     9   13   16 ar   
    10   15   18 ar   
    11   16   18 ar   
    12   16   64 1    
    13   19   20 ar   
    14   19   21 ar   
    15   23   25 1    
    16   25   26 1    
    17   25   30 1    
    18   26   27 2    
    19   26   42 am   
    20   30   32 1    
    21   32   36 1    
    22   32   40 1    
    23   42   44 1    
    24   44   45 1    
    25   44   49 1    
    26   45   46 ar   
    27   45   61 ar   
    28   49   50 1    
    29   50   52 ar   
    30   50   54 ar   
    31   52   56 ar   
    32   54   58 ar   
    33   56   60 ar   
    34   58   60 ar   
    35   64   67 1    
    36   67   65 1    
    37   67   66 1    
    38   64   62 1    
    39   64   63 1    
    40   60   59 1    
    41   58   57 1    
    42   56   55 1    
    43   54   53 1    
    44   52   51 1    
    45   49   47 1    
    46   49   48 1    
    47   44   43 1    
    48   42   41 1    
    49   40   37 1    
    50   40   38 1    
    51   40   39 1    
    52   36   33 1    
    53   36   34 1    
    54   36   35 1    
    55   32   31 1    
    56   30   28 1    
    57   30   29 1    
    58   25   24 1    
    59   23   22 1    
    60   18   17 1    
    61   15   14 1    
    62   13   12 1    
    63   11   10 1    
    64    8    6 1    
    65    8    7 1    
    66    5    3 1    
    67    5    4 1    
    68    2    1 1    
@<TRIPOS>SUBSTRUCTURE
     1 MAIN        1 PERM              0 ****  ****    0 ROOT 
@<TRIPOS>NORMAL
@<TRIPOS>ALT_TYPE
MMFF94_ALT_TYPE_SET 
MMFF94 1 HC 2 CR 3 HC 4 HC 5 CR 6 HC 7 HC 8 CR 9 CB 10 HC 11 CB 12 HC \
13 CB 14 HC 15 CB 16 CB 17 HC 18 CB 19 CO2M 20 O2CM 21 O2CM \
22 HNR 23 NR 24 HC 25 CR 26 C=ON 27 O=CN 28 HC 29 HC \
30 CR 31 HC 32 CR 33 HC 34 HC 35 HC 36 CR 37 HC 38 HC \
39 HC 40 CR 41 HNCO 42 NC=O 43 HC 44 CR 45 CO2M 46 O2CM \
47 HC 48 HC 49 CR 50 CB 51 HC 52 CB 53 HC 54 CB 55 HC \
56 CB 57 HC 58 CB 59 HC 60 CB 61 O2CM 62 HC 63 HC 64 CR \
65 HNR 66 HNR 67 NR 
@<TRIPOS>FF_PBC
FORCE_FIELD_SETUP_FEATURE Force Field Setup information
v1.0  0 0.000000 0.000000 0.000000 0.000000 0.000000 0.000000 NONE 0 0 0 0 0 0 0 0 0 0 0 0 0
