#	Name:			dah55_min
#	Creating user name:	jeff
#	Creation time:		Thu Dec 19 11:49:51 2002

#	Modifying user name:	jeff
#	Modification time:	Thu Dec 19 11:49:51 2002

@<TRIPOS>MOLECULE
dah55_min
   58    58     1     2     0
SMALL
GASTEIGER


@<TRIPOS>ATOM
      1 H2          0.073000   -1.116000   -1.606000 H         1 MAIN        0.052187 
      2 C2         -0.790000   -1.628000   -2.034000 C.3       1 MAIN        0.047892 
      3 H32        -1.456000   -2.575000   -0.218000 H         1 MAIN        0.028385 
      4 H31        -1.785000   -3.508000   -1.698000 H         1 MAIN        0.028385 
      5 C3         -1.057000   -2.878000   -1.186000 C.3       1 MAIN       -0.032286 
      6 H42         0.670000   -3.925000   -1.938000 H         1 MAIN        0.026579 
      7 H41         0.939000   -3.073000   -0.398000 H         1 MAIN        0.026579 
      8 C4          0.235000   -3.678000   -0.969000 C.3       1 MAIN       -0.051552 
      9 H52        -0.454000   -4.725000    0.780000 H         1 MAIN        0.026265 
     10 H51        -0.787000   -5.560000   -0.756000 H         1 MAIN        0.026265 
     11 C5         -0.055000   -4.971000   -0.203000 C.3       1 MAIN       -0.055852 
     12 H63         1.008000   -6.706000    0.510000 H         1 MAIN        0.022978 
     13 H62         1.631000   -6.040000   -1.018000 H         1 MAIN        0.022978 
     14 H61         1.964000   -5.204000    0.518000 H         1 MAIN        0.022978 
     15 C6          1.230000   -5.789000   -0.036000 C.3       1 MAIN       -0.065276 
     16 C11        -0.414000   -1.981000   -3.442000 C.2       1 MAIN        0.058662 
     17 O12        -0.052000   -1.130000   -4.218000 O.co2     1 MAIN       -0.548202 
     18 O13        -0.375000   -3.173000   -4.075000 O.co2     1 MAIN       -0.548202 
     19 H14        -2.794000   -1.151000   -2.423000 H         1 MAIN        0.123250 
     20 N14        -1.933000   -0.665000   -1.964000 N.3       1 MAIN       -0.297787 
     21 H15        -1.864000    0.482000   -3.694000 H         1 MAIN        0.055651 
     22 C15        -1.771000    0.669000   -2.624000 C.3       1 MAIN        0.085459 
     23 C16        -0.407000    1.294000   -2.446000 C.2       1 MAIN        0.230579 
     24 O17         0.159000    1.836000   -3.407000 O.2       1 MAIN       -0.274085 
     25 H182       -3.846000    1.146000   -2.297000 H         1 MAIN        0.028744 
     26 H181       -2.728000    1.879000   -1.121000 H         1 MAIN        0.028744 
     27 C18        -2.879000    1.633000   -2.173000 C.3       1 MAIN       -0.026674 
     28 H19        -1.840000    3.310000   -3.006000 H         1 MAIN        0.029608 
     29 C19        -2.861000    2.929000   -2.998000 C.3       1 MAIN       -0.044858 
     30 H203       -3.256000    3.598000   -5.012000 H         1 MAIN        0.023234 
     31 H202       -2.585000    1.953000   -4.903000 H         1 MAIN        0.023234 
     32 H201       -4.286000    2.251000   -4.471000 H         1 MAIN        0.023234 
     33 C20        -3.277000    2.663000   -4.451000 C.3       1 MAIN       -0.062604 
     34 H213       -3.740000    4.895000   -2.958000 H         1 MAIN        0.023234 
     35 H212       -4.788000    3.609000   -2.314000 H         1 MAIN        0.023234 
     36 H211       -3.414000    4.203000   -1.351000 H         1 MAIN        0.023234 
     37 C21        -3.766000    3.985000   -2.359000 C.3       1 MAIN       -0.062604 
     38 H22        -0.428000    0.870000   -0.337000 H         1 MAIN        0.149382 
     39 N22         0.169000    1.205000   -1.185000 N.am      1 MAIN       -0.305743 
     40 H23         2.091000    1.410000   -1.943000 H         1 MAIN        0.056314 
     41 C23         1.586000    1.562000   -0.989000 C.3       1 MAIN        0.066584 
     42 C24         2.240000    0.650000    0.015000 C.2       1 MAIN        0.062260 
     43 O25         1.628000    0.013000    0.870000 O.co2     1 MAIN       -0.547888 
     44 H272        2.837000    3.303000   -0.787000 H         1 MAIN        0.033477 
     45 H271        1.181000    3.647000   -1.342000 H         1 MAIN        0.033477 
     46 C27         1.784000    3.052000   -0.657000 C.3       1 MAIN       -0.003914 
     47 C29         1.379000    3.379000    0.753000 C.ar      1 MAIN       -0.045254 
     48 H30        -0.735000    3.429000    0.334000 H         1 MAIN        0.062030 
     49 C30         0.037000    3.531000    1.095000 C.ar      1 MAIN       -0.058503 
     50 H31         3.412000    3.402000    1.468000 H         1 MAIN        0.062030 
     51 C31         2.361000    3.518000    1.733000 C.ar      1 MAIN       -0.058503 
     52 H32        -1.366000    3.931000    2.677000 H         1 MAIN        0.061766 
     53 C32        -0.315000    3.815000    2.411000 C.ar      1 MAIN       -0.061500 
     54 H33         2.780000    3.911000    3.812000 H         1 MAIN        0.061766 
     55 C33         2.008000    3.804000    3.050000 C.ar      1 MAIN       -0.061500 
     56 H34         0.383000    4.173000    4.420000 H         1 MAIN        0.061758 
     57 C34         0.665000    3.951000    3.390000 C.ar      1 MAIN       -0.061742 
     58 O36         3.586000    0.559000   -0.035000 O.co2     1 MAIN       -0.547888 
@<TRIPOS>BOND
     1    5    2 1    
     2    2   16 1    
     3    2   20 1    
     4    5    8 1    
     5    8   11 1    
     6   11   15 1    
     7   16   17 ar   
     8   16   18 ar   
     9   20   22 1    
    10   22   23 1    
    11   22   27 1    
    12   23   24 2    
    13   23   39 am   
    14   27   29 1    
    15   29   33 1    
    16   29   37 1    
    17   39   41 1    
    18   41   42 1    
    19   41   46 1    
    20   42   43 ar   
    21   42   58 ar   
    22   46   47 1    
    23   47   49 ar   
    24   47   51 ar   
    25   49   53 ar   
    26   51   55 ar   
    27   53   57 ar   
    28   55   57 ar   
    29   57   56 1    
    30   55   54 1    
    31   53   52 1    
    32   51   50 1    
    33   49   48 1    
    34   46   44 1    
    35   46   45 1    
    36   41   40 1    
    37   39   38 1    
    38   37   34 1    
    39   37   35 1    
    40   37   36 1    
    41   33   30 1    
    42   33   31 1    
    43   33   32 1    
    44   29   28 1    
    45   27   25 1    
    46   27   26 1    
    47   22   21 1    
    48   20   19 1    
    49   15   12 1    
    50   15   13 1    
    51   15   14 1    
    52   11    9 1    
    53   11   10 1    
    54    8    6 1    
    55    8    7 1    
    56    5    3 1    
    57    5    4 1    
    58    2    1 1    
@<TRIPOS>SUBSTRUCTURE
     1 MAIN        1 PERM              0 ****  ****    0 ROOT 
@<TRIPOS>NORMAL
@<TRIPOS>ALT_TYPE
MMFF94_ALT_TYPE_SET 
MMFF94 1 HC 2 CR 3 HC 4 HC 5 CR 6 HC 7 HC 8 CR 9 HC 10 HC 11 CR 12 HC \
13 HC 14 HC 15 CR 16 CO2M 17 O2CM 18 O2CM 19 HNR 20 NR \
21 HC 22 CR 23 C=ON 24 O=CN 25 HC 26 HC 27 CR 28 HC 29 CR \
30 HC 31 HC 32 HC 33 CR 34 HC 35 HC 36 HC 37 CR 38 HNCO \
39 NC=O 40 HC 41 CR 42 CO2M 43 O2CM 44 HC 45 HC 46 CR \
47 CB 48 HC 49 CB 50 HC 51 CB 52 HC 53 CB 54 HC 55 CB \
56 HC 57 CB 58 O2CM 
@<TRIPOS>FF_PBC
FORCE_FIELD_SETUP_FEATURE Force Field Setup information
v1.0  0 0.000000 0.000000 0.000000 0.000000 0.000000 0.000000 NONE 0 0 0 0 0 0 0 0 0 0 0 0 0
