#	Name:			dah51_min
#	Creating user name:	jeff
#	Creation time:		Thu Dec 19 11:49:51 2002

#	Modifying user name:	jeff
#	Modification time:	Thu Dec 19 11:49:51 2002

@<TRIPOS>MOLECULE
dah51_min
   62    63     1     2     0
SMALL
GASTEIGER


@<TRIPOS>ATOM
      1 H2          0.101000   -1.288000   -1.543000 H         1 MAIN        0.052197 
      2 C2         -0.757000   -1.745000   -2.037000 C.3       1 MAIN        0.048189 
      3 H32        -2.135000   -3.331000   -1.584000 H         1 MAIN        0.028698 
      4 H31        -0.434000   -3.844000   -1.702000 H         1 MAIN        0.028698 
      5 C3         -1.106000   -3.065000   -1.341000 C.3       1 MAIN       -0.028290 
      6 H42         0.048000   -2.647000    0.426000 H         1 MAIN        0.031376 
      7 H41        -1.674000   -2.215000    0.552000 H         1 MAIN        0.031376 
      8 C4         -0.968000   -2.957000    0.180000 C.3       1 MAIN       -0.025926 
      9 C5         -1.252000   -4.280000    0.831000 C.ar      1 MAIN       -0.047295 
     10 H6         -2.008000   -3.392000    2.643000 H         1 MAIN        0.062029 
     11 C6         -1.792000   -4.321000    2.115000 C.ar      1 MAIN       -0.058572 
     12 H7         -0.539000   -5.450000   -0.833000 H         1 MAIN        0.062029 
     13 C7         -0.971000   -5.475000    0.167000 C.ar      1 MAIN       -0.058572 
     14 H8         -2.482000   -5.571000    3.731000 H         1 MAIN        0.061766 
     15 C8         -2.058000   -5.545000    2.727000 C.ar      1 MAIN       -0.061501 
     16 H9         -1.021000   -7.629000    0.249000 H         1 MAIN        0.061766 
     17 C9         -1.238000   -6.700000    0.776000 C.ar      1 MAIN       -0.061501 
     18 H10        -1.996000   -7.692000    2.534000 H         1 MAIN        0.061758 
     19 C10        -1.784000   -6.735000    2.057000 C.ar      1 MAIN       -0.061742 
     20 C11        -0.381000   -2.025000   -3.453000 C.2       1 MAIN        0.058672 
     21 O12        -0.057000   -1.150000   -4.218000 O.co2     1 MAIN       -0.548201 
     22 O13        -0.301000   -3.215000   -4.082000 O.co2     1 MAIN       -0.548201 
     23 H14        -2.766000   -1.212000   -2.311000 H         1 MAIN        0.123250 
     24 N14        -1.867000   -0.743000   -1.912000 N.3       1 MAIN       -0.297778 
     25 H15        -1.825000    0.385000   -3.657000 H         1 MAIN        0.055651 
     26 C15        -1.729000    0.589000   -2.590000 C.3       1 MAIN        0.085459 
     27 C16        -0.373000    1.237000   -2.429000 C.2       1 MAIN        0.230579 
     28 O17         0.178000    1.798000   -3.389000 O.2       1 MAIN       -0.274085 
     29 H182       -3.809000    1.038000   -2.259000 H         1 MAIN        0.028744 
     30 H181       -2.697000    1.808000   -1.102000 H         1 MAIN        0.028744 
     31 C18        -2.849000    1.542000   -2.148000 C.3       1 MAIN       -0.026674 
     32 H19        -1.843000    3.222000   -3.015000 H         1 MAIN        0.029608 
     33 C19        -2.858000    2.825000   -2.993000 C.3       1 MAIN       -0.044858 
     34 H203       -3.278000    3.459000   -5.014000 H         1 MAIN        0.023234 
     35 H202       -2.582000    1.826000   -4.887000 H         1 MAIN        0.023234 
     36 H201       -4.283000    2.104000   -4.446000 H         1 MAIN        0.023234 
     37 C20        -3.281000    2.532000   -4.440000 C.3       1 MAIN       -0.062604 
     38 H213       -3.768000    4.778000   -2.977000 H         1 MAIN        0.023234 
     39 H212       -4.791000    3.485000   -2.305000 H         1 MAIN        0.023234 
     40 H211       -3.419000    4.116000   -1.362000 H         1 MAIN        0.023234 
     41 C21        -3.775000    3.877000   -2.364000 C.3       1 MAIN       -0.062604 
     42 H22        -0.386000    0.785000   -0.327000 H         1 MAIN        0.149382 
     43 N22         0.209000    1.133000   -1.172000 N.am      1 MAIN       -0.305743 
     44 H23         2.137000    1.323000   -1.919000 H         1 MAIN        0.056314 
     45 C23         1.624000    1.492000   -0.972000 C.3       1 MAIN        0.066584 
     46 C24         2.269000    0.597000    0.054000 C.2       1 MAIN        0.062260 
     47 O25         1.649000   -0.023000    0.914000 O.co2     1 MAIN       -0.547888 
     48 H272        2.877000    3.233000   -0.775000 H         1 MAIN        0.033477 
     49 H271        1.234000    3.572000   -1.370000 H         1 MAIN        0.033477 
     50 C27         1.821000    2.987000   -0.662000 C.3       1 MAIN       -0.003914 
     51 C29         1.388000    3.341000    0.734000 C.ar      1 MAIN       -0.045254 
     52 H30        -0.718000    3.378000    0.272000 H         1 MAIN        0.062030 
     53 C30         0.039000    3.497000    1.047000 C.ar      1 MAIN       -0.058503 
     54 H31         3.406000    3.384000    1.489000 H         1 MAIN        0.062030 
     55 C31         2.350000    3.502000    1.731000 C.ar      1 MAIN       -0.058503 
     56 H32        -1.397000    3.924000    2.592000 H         1 MAIN        0.061766 
     57 C32        -0.341000    3.806000    2.349000 C.ar      1 MAIN       -0.061500 
     58 H33         2.725000    3.939000    3.809000 H         1 MAIN        0.061766 
     59 C33         1.969000    3.813000    3.034000 C.ar      1 MAIN       -0.061500 
     60 H34         0.317000    4.205000    4.364000 H         1 MAIN        0.061758 
     61 C34         0.620000    3.964000    3.345000 C.ar      1 MAIN       -0.061742 
     62 O36         3.615000    0.502000    0.016000 O.co2     1 MAIN       -0.547888 
@<TRIPOS>BOND
     1    5    2 1    
     2    2   20 1    
     3    2   24 1    
     4    5    8 1    
     5    8    9 1    
     6    9   11 ar   
     7    9   13 ar   
     8   11   15 ar   
     9   13   17 ar   
    10   15   19 ar   
    11   17   19 ar   
    12   20   21 ar   
    13   20   22 ar   
    14   24   26 1    
    15   26   27 1    
    16   26   31 1    
    17   27   28 2    
    18   27   43 am   
    19   31   33 1    
    20   33   37 1    
    21   33   41 1    
    22   43   45 1    
    23   45   46 1    
    24   45   50 1    
    25   46   47 ar   
    26   46   62 ar   
    27   50   51 1    
    28   51   53 ar   
    29   51   55 ar   
    30   53   57 ar   
    31   55   59 ar   
    32   57   61 ar   
    33   59   61 ar   
    34   61   60 1    
    35   59   58 1    
    36   57   56 1    
    37   55   54 1    
    38   53   52 1    
    39   50   48 1    
    40   50   49 1    
    41   45   44 1    
    42   43   42 1    
    43   41   38 1    
    44   41   39 1    
    45   41   40 1    
    46   37   34 1    
    47   37   35 1    
    48   37   36 1    
    49   33   32 1    
    50   31   29 1    
    51   31   30 1    
    52   26   25 1    
    53   24   23 1    
    54   19   18 1    
    55   17   16 1    
    56   15   14 1    
    57   13   12 1    
    58   11   10 1    
    59    8    6 1    
    60    8    7 1    
    61    5    3 1    
    62    5    4 1    
    63    2    1 1    
@<TRIPOS>SUBSTRUCTURE
     1 MAIN        1 PERM              0 ****  ****    0 ROOT 
@<TRIPOS>NORMAL
@<TRIPOS>ALT_TYPE
MMFF94_ALT_TYPE_SET 
MMFF94 1 HC 2 CR 3 HC 4 HC 5 CR 6 HC 7 HC 8 CR 9 CB 10 HC 11 CB 12 HC \
13 CB 14 HC 15 CB 16 HC 17 CB 18 HC 19 CB 20 CO2M 21 O2CM \
22 O2CM 23 HNR 24 NR 25 HC 26 CR 27 C=ON 28 O=CN 29 HC \
30 HC 31 CR 32 HC 33 CR 34 HC 35 HC 36 HC 37 CR 38 HC \
39 HC 40 HC 41 CR 42 HNCO 43 NC=O 44 HC 45 CR 46 CO2M \
47 O2CM 48 HC 49 HC 50 CR 51 CB 52 HC 53 CB 54 HC 55 CB \
56 HC 57 CB 58 HC 59 CB 60 HC 61 CB 62 O2CM 
@<TRIPOS>FF_PBC
FORCE_FIELD_SETUP_FEATURE Force Field Setup information
v1.0  0 0.000000 0.000000 0.000000 0.000000 0.000000 0.000000 NONE 0 0 0 0 0 0 0 0 0 0 0 0 0
