#	Name:			dah50_min
#	Creating user name:	jeff
#	Creation time:		Thu Dec 19 11:49:51 2002

#	Modifying user name:	jeff
#	Modification time:	Thu Dec 19 11:49:51 2002

@<TRIPOS>MOLECULE
dah50_min
   94    97     1     2     0
SMALL
GASTEIGER


@<TRIPOS>ATOM
      1 H1          2.880000  -12.834000   -6.766000 H         1 MAIN        0.061767 
      2 C1          2.399000  -12.211000   -6.012000 C.ar      1 MAIN       -0.061429 
      3 H2          1.424000  -10.954000   -7.465000 H         1 MAIN        0.062101 
      4 C2          1.581000  -11.151000   -6.405000 C.ar      1 MAIN       -0.056372 
      5 C3          0.966000  -10.343000   -5.452000 C.ar      1 MAIN       -0.021282 
      6 H4          0.703000   -9.992000   -3.344000 H         1 MAIN        0.062101 
      7 C4          1.179000  -10.617000   -4.099000 C.ar      1 MAIN       -0.056372 
      8 H5          2.148000  -11.879000   -2.638000 H         1 MAIN        0.061767 
      9 C5          1.993000  -11.678000   -3.698000 C.ar      1 MAIN       -0.061429 
     10 H6          3.240000  -13.308000   -4.355000 H         1 MAIN        0.061758 
     11 C6          2.603000  -12.477000   -4.659000 C.ar      1 MAIN       -0.061740 
     12 H72         0.204000   -9.032000   -6.952000 H         1 MAIN        0.061655 
     13 H71        -0.958000   -9.448000   -5.670000 H         1 MAIN        0.061655 
     14 C7          0.081000   -9.196000   -5.882000 C.3       1 MAIN        0.083653 
     15 O8          0.424693   -7.997585   -5.181588 O.3       1 MAIN       -0.295140 
     16 C9         -0.215984   -7.742882   -4.044241 C.2       1 MAIN        0.353140 
     17 O10        -1.141984   -8.463882   -3.666241 O.2       1 MAIN       -0.241337 
     18 H12        -1.318984   -6.500882   -1.915241 H         1 MAIN        0.059842 
     19 C12        -0.230984   -6.439882   -1.920241 C.3       1 MAIN        0.105411 
     20 H13         0.961016   -5.965882   -3.741241 H         1 MAIN        0.151735 
     21 N13         0.244016   -6.658882   -3.300241 N.am      1 MAIN       -0.279738 
     22 H142        0.691016   -8.362882   -1.601241 H         1 MAIN        0.033589 
     23 H141        1.186016   -7.108882   -0.439241 H         1 MAIN        0.033589 
     24 C14         0.346016   -7.522882   -0.997241 C.3       1 MAIN       -0.000585 
     25 C15         0.159016   -5.072882   -1.422241 C.2       1 MAIN        0.233757 
     26 O16         1.291016   -4.615882   -1.588241 O.2       1 MAIN       -0.273768 
     27 C17        -0.699984   -8.004882   -0.032241 C.ar      1 MAIN       -0.045140 
     28 H18        -0.886984   -9.939882   -0.966241 H         1 MAIN        0.062030 
     29 C18        -1.229984   -9.288882   -0.163241 C.ar      1 MAIN       -0.058501 
     30 H19        -0.735984   -6.169882    1.090759 H         1 MAIN        0.062030 
     31 C19        -1.145984   -7.173882    0.990759 C.ar      1 MAIN       -0.058501 
     32 H20        -2.610984  -10.742882    0.628759 H         1 MAIN        0.061766 
     33 C20        -2.197984   -9.738882    0.731759 C.ar      1 MAIN       -0.061500 
     34 H21        -2.461984   -6.965882    2.686759 H         1 MAIN        0.061766 
     35 C21        -2.114984   -7.619882    1.887759 C.ar      1 MAIN       -0.061500 
     36 H22        -3.393984   -9.256882    2.461759 H         1 MAIN        0.061758 
     37 C22        -2.638984   -8.903882    1.759759 C.ar      1 MAIN       -0.061742 
     38 H30        -1.816984   -4.771882   -0.677241 H         1 MAIN        0.148734 
     39 N30        -0.814984   -4.347882   -0.738241 N.am      1 MAIN       -0.313702 
     40 H392       -1.498984   -2.711882    0.393759 H         1 MAIN        0.046257 
     41 H391        0.205016   -3.153882    0.661759 H         1 MAIN        0.046257 
     42 C39        -0.576984   -3.034882   -0.089241 C.3       1 MAIN        0.013659 
     43 H402       -0.004984   -1.009882   -0.558241 H         1 MAIN        0.030168 
     44 H401        0.806016   -2.249882   -1.544241 H         1 MAIN        0.030168 
     45 C40        -0.137984   -1.951882   -1.089241 C.3       1 MAIN       -0.013980 
     46 H41        -1.929984   -2.552882   -2.089241 H         1 MAIN        0.055646 
     47 C41        -1.184984   -1.762882   -2.189241 C.3       1 MAIN        0.057908 
     48 C42        -0.605984   -1.994882   -3.543241 C.2       1 MAIN        0.061608 
     49 O43        -0.074984   -1.147882   -4.221241 O.co2     1 MAIN       -0.547909 
     50 O44        -0.556984   -3.175882   -4.185241 O.co2     1 MAIN       -0.547909 
     51 H45        -1.851984    0.478118   -3.816241 H         1 MAIN        0.059076 
     52 C45        -1.807984    0.724118   -2.755241 C.3       1 MAIN        0.094142 
     53 H46        -3.064984   -0.850882   -2.246241 H         1 MAIN        0.141405 
     54 N46        -2.047984   -0.542882   -2.004241 N.pl3     1 MAIN       -0.353983 
     55 H472       -3.872984    1.295118   -2.550241 H         1 MAIN        0.029018 
     56 H471       -2.791984    1.987118   -1.317241 H         1 MAIN        0.029018 
     57 C47        -2.894984    1.742118   -2.374241 C.3       1 MAIN       -0.023987 
     58 C48        -0.444984    1.320118   -2.522241 C.2       1 MAIN        0.233497 
     59 O49         0.161016    1.850118   -3.461241 O.2       1 MAIN       -0.273775 
     60 H50        -1.744984    3.358118   -3.191241 H         1 MAIN        0.029617 
     61 C50        -2.786984    3.037118   -3.194241 C.3       1 MAIN       -0.044601 
     62 H513       -3.110984    3.734118   -5.211241 H         1 MAIN        0.023234 
     63 H512       -2.542984    2.051118   -5.099241 H         1 MAIN        0.023234 
     64 H511       -4.228984    2.450118   -4.690241 H         1 MAIN        0.023234 
     65 C51        -3.196984    2.801118   -4.654241 C.3       1 MAIN       -0.062595 
     66 H523       -3.548984    5.053118   -3.152241 H         1 MAIN        0.023234 
     67 H522       -4.678984    3.828118   -2.528241 H         1 MAIN        0.023234 
     68 H521       -3.283984    4.334118   -1.546241 H         1 MAIN        0.023234 
     69 C52        -3.635984    4.143118   -2.559241 C.3       1 MAIN       -0.062595 
     70 H55         1.977016    1.737118   -1.903241 H         1 MAIN        0.056315 
     71 C55         1.433016    1.745118   -0.959241 C.3       1 MAIN        0.066652 
     72 H56        -0.541984    0.863118   -0.422241 H         1 MAIN        0.149391 
     73 N56         0.067016    1.264118   -1.232241 N.am      1 MAIN       -0.305511 
     74 H572        2.470016    3.578118   -0.503241 H         1 MAIN        0.033536 
     75 H571        0.820016    3.803118   -1.133241 H         1 MAIN        0.033536 
     76 C57         1.446016    3.205118   -0.470241 C.3       1 MAIN       -0.002123 
     77 C58         2.161016    0.817118   -0.021241 C.2       1 MAIN        0.062261 
     78 O59         1.615016    0.130118    0.837759 O.co2     1 MAIN       -0.547888 
     79 C60         0.927016    3.335118    0.934759 C.ar      1 MAIN       -0.022592 
     80 H61        -1.195984    2.909118    0.704759 H         1 MAIN        0.078413 
     81 C61        -0.352984    3.150118    1.351759 C.ar      1 MAIN       -0.002358 
     82 C62         1.715016    3.661118    2.090759 C.ar      1 MAIN        0.000534 
     83 H63         3.759016    3.961118    1.399759 H         1 MAIN        0.062411 
     84 C63         3.083016    3.956118    2.254759 C.ar      1 MAIN       -0.052522 
     85 C64         0.881016    3.660118    3.206759 C.ar      1 MAIN        0.038452 
     86 H65        -1.310984    3.202118    3.383759 H         1 MAIN        0.151632 
     87 N65        -0.422984    3.316118    2.761759 N.am      1 MAIN       -0.319787 
     88 H66         4.603016    4.473118    3.673759 H         1 MAIN        0.061777 
     89 C66         3.547016    4.242118    3.529759 C.ar      1 MAIN       -0.061079 
     90 H67         0.655016    3.942118    5.357759 H         1 MAIN        0.063622 
     91 C67         1.332016    3.948118    4.502759 C.ar      1 MAIN       -0.039969 
     92 H68         3.077016    4.470118    5.634759 H         1 MAIN        0.061816 
     93 C68         2.680016    4.239118    4.645759 C.ar      1 MAIN       -0.059972 
     94 O69         3.505016    0.769118   -0.144241 O.co2     1 MAIN       -0.547888 
@<TRIPOS>BOND
     1    2    4 ar   
     2    2   11 ar   
     3    4    5 ar   
     4    5    7 ar   
     5    5   14 1    
     6    7    9 ar   
     7    9   11 ar   
     8   14   15 1    
     9   15   16 1    
    10   16   17 2    
    11   16   21 am   
    12   21   19 1    
    13   19   24 1    
    14   19   25 1    
    15   24   27 1    
    16   25   26 2    
    17   25   39 am   
    18   27   29 ar   
    19   27   31 ar   
    20   29   33 ar   
    21   31   35 ar   
    22   33   37 ar   
    23   35   37 ar   
    24   39   42 1    
    25   42   45 1    
    26   45   47 1    
    27   47   48 1    
    28   47   54 1    
    29   48   49 ar   
    30   48   50 ar   
    31   54   52 1    
    32   52   57 1    
    33   52   58 1    
    34   57   61 1    
    35   58   59 2    
    36   58   73 am   
    37   61   65 1    
    38   61   69 1    
    39   73   71 1    
    40   71   76 1    
    41   71   77 1    
    42   76   79 1    
    43   77   78 ar   
    44   77   94 ar   
    45   79   81 ar   
    46   79   82 ar   
    47   81   87 1    
    48   82   84 ar   
    49   82   85 ar   
    50   84   89 ar   
    51   85   87 1    
    52   85   91 ar   
    53   89   93 ar   
    54   91   93 ar   
    55   93   92 1    
    56   91   90 1    
    57   89   88 1    
    58   87   86 1    
    59   84   83 1    
    60   81   80 1    
    61   76   74 1    
    62   76   75 1    
    63   73   72 1    
    64   71   70 1    
    65   69   66 1    
    66   69   67 1    
    67   69   68 1    
    68   65   62 1    
    69   65   63 1    
    70   65   64 1    
    71   61   60 1    
    72   57   55 1    
    73   57   56 1    
    74   54   53 1    
    75   52   51 1    
    76   47   46 1    
    77   45   43 1    
    78   45   44 1    
    79   42   40 1    
    80   42   41 1    
    81   39   38 1    
    82   37   36 1    
    83   35   34 1    
    84   33   32 1    
    85   31   30 1    
    86   29   28 1    
    87   24   22 1    
    88   24   23 1    
    89   21   20 1    
    90   19   18 1    
    91   14   12 1    
    92   14   13 1    
    93   11   10 1    
    94    9    8 1    
    95    7    6 1    
    96    4    3 1    
    97    2    1 1    
@<TRIPOS>SUBSTRUCTURE
     1 MAIN        1 PERM              0 ****  ****    0 ROOT 
@<TRIPOS>NORMAL
@<TRIPOS>ALT_TYPE
MMFF94_ALT_TYPE_SET 
MMFF94 1 HC 2 CB 3 HC 4 CB 5 CB 6 HC 7 CB 8 HC 9 CB 10 HC 11 CB 12 HC \
13 HC 14 CR 15 OC=O 16 COO 17 O=CN 18 HC 19 CR 20 HNCO \
21 NC=O 22 HC 23 HC 24 CR 25 C=ON 26 O=CN 27 CB 28 HC \
29 CB 30 HC 31 CB 32 HC 33 CB 34 HC 35 CB 36 HC 37 CB \
38 HNCO 39 NC=O 40 HC 41 HC 42 CR 43 HC 44 HC 45 CR 46 HC \
47 CR 48 CO2M 49 O2CM 50 O2CM 51 HC 52 CR 53 HNR 54 NR \
55 HC 56 HC 57 CR 58 C=ON 59 O=CN 60 HC 61 CR 62 HC 63 HC \
64 HC 65 CR 66 HC 67 HC 68 HC 69 CR 70 HC 71 CR 72 HNCO \
73 NC=O 74 HC 75 HC 76 CR 77 CO2M 78 O2CM 79 C5B 80 HC \
81 C5A 82 CB 83 HC 84 CB 85 CB 86 HNCC 87 NPYL 88 HC \
89 CB 90 HC 91 CB 92 HC 93 CB 94 O2CM 
@<TRIPOS>FF_PBC
FORCE_FIELD_SETUP_FEATURE Force Field Setup information
v1.0  0 0.000000 0.000000 0.000000 0.000000 0.000000 0.000000 NONE 0 0 0 0 0 0 0 0 0 0 0 0 0
