#	Name:			dah52_min
#	Creating user name:	jeff
#	Creation time:		Thu Dec 19 11:49:51 2002

#	Modifying user name:	jeff
#	Modification time:	Thu Dec 19 11:49:51 2002

@<TRIPOS>MOLECULE
dah52_min
   49    49     1     2     0
SMALL
GASTEIGER


@<TRIPOS>ATOM
      1 H2          0.147000   -0.958000   -1.604000 H         1 <1>         0.051912 
      2 C2         -0.720000   -1.485000   -2.002000 C.3       1 <1>         0.045050 
      3 H33        -1.169000   -2.442000   -0.123000 H         1 <1>         0.024827 
      4 H32        -1.793000   -3.300000   -1.552000 H         1 <1>         0.024827 
      5 H31        -0.056000   -3.359000   -1.168000 H         1 <1>         0.024827 
      6 C3         -0.951000   -2.737000   -1.150000 C.3       1 <1>        -0.044404 
      7 C5         -0.420000   -1.855000   -3.416000 C.2       1 <1>         0.058395 
      8 O6         -0.009000   -1.044000   -4.264000 O.co2     1 <1>        -0.548211 
      9 O7         -0.505000   -2.935000   -4.042000 O.co2     1 <1>        -0.548211 
     10 H8         -2.744000   -1.070000   -2.363000 H         1 <1>         0.123241 
     11 N8         -1.888000   -0.559000   -1.921000 N.3       1 <1>        -0.298020 
     12 H9         -1.873000    0.565000   -3.667000 H         1 <1>         0.055651 
     13 C9         -1.750000    0.764000   -2.602000 C.3       1 <1>         0.085452 
     14 C10        -0.383000    1.392000   -2.465000 C.2       1 <1>         0.230579 
     15 O11         0.163000    1.902000   -3.447000 O.2       1 <1>        -0.274085 
     16 H122       -3.818000    1.241000   -2.233000 H         1 <1>         0.028744 
     17 H121       -2.675000    1.985000   -1.089000 H         1 <1>         0.028744 
     18 C12        -2.848000    1.730000   -2.134000 C.3       1 <1>        -0.026674 
     19 H13        -1.831000    3.406000   -2.995000 H         1 <1>         0.029608 
     20 C13        -2.849000    3.019000   -2.971000 C.3       1 <1>        -0.044858 
     21 H143       -3.272000    3.668000   -4.986000 H         1 <1>         0.023234 
     22 H142       -2.590000    2.028000   -4.871000 H         1 <1>         0.023234 
     23 H141       -4.287000    2.319000   -4.421000 H         1 <1>         0.023234 
     24 C14        -3.281000    2.738000   -4.417000 C.3       1 <1>        -0.062604 
     25 H153       -3.741000    4.980000   -2.937000 H         1 <1>         0.023234 
     26 H152       -4.772000    3.692000   -2.270000 H         1 <1>         0.023234 
     27 H151       -3.391000    4.304000   -1.328000 H         1 <1>         0.023234 
     28 C15        -3.754000    4.075000   -2.330000 C.3       1 <1>        -0.062604 
     29 H16        -0.357000    1.063000   -0.349000 H         1 <1>         0.149382 
     30 N16         0.231000    1.347000   -1.222000 N.am      1 <1>        -0.305743 
     31 H17         2.171000    1.547000   -2.007000 H         1 <1>         0.056314 
     32 C17         1.659000    1.675000   -1.053000 C.3       1 <1>         0.066584 
     33 C18         2.258000    0.730000   -0.047000 C.2       1 <1>         0.062260 
     34 O19         1.432000    0.236000    0.781000 O.co2     1 <1>        -0.547888 
     35 H212        2.934000    3.387000   -0.763000 H         1 <1>         0.033477 
     36 H211        1.300000    3.779000   -1.350000 H         1 <1>         0.033477 
     37 C21         1.875000    3.152000   -0.668000 C.3       1 <1>        -0.003914 
     38 C23         1.439000    3.447000    0.743000 C.ar      1 <1>        -0.045254 
     39 H24        -0.662000    3.571000    0.272000 H         1 <1>         0.062030 
     40 C24         0.092000    3.622000    1.057000 C.ar      1 <1>        -0.058503 
     41 H25         3.450000    3.395000    1.513000 H         1 <1>         0.062030 
     42 C25         2.395000    3.526000    1.755000 C.ar      1 <1>        -0.058503 
     43 H26        -1.347000    3.995000    2.615000 H         1 <1>         0.061766 
     44 C26        -0.292000    3.863000    2.373000 C.ar      1 <1>        -0.061500 
     45 H27         2.765000    3.830000    3.857000 H         1 <1>         0.061766 
     46 C27         2.012000    3.770000    3.072000 C.ar      1 <1>        -0.061500 
     47 H28         0.360000    4.125000    4.412000 H         1 <1>         0.061758 
     48 C28         0.665000    3.937000    3.382000 C.ar      1 <1>        -0.061742 
     49 O30         3.508000    0.509000   -0.036000 O.co2     1 <1>        -0.547888 
@<TRIPOS>BOND
     1    1    2 1    
     2    2    6 1    
     3    2    7 1    
     4    2   11 1    
     5    6    3 1    
     6    6    4 1    
     7    6    5 1    
     8    7    8 ar   
     9    7    9 ar   
    10   11   10 1    
    11   11   13 1    
    12   13   12 1    
    13   13   14 1    
    14   13   18 1    
    15   14   15 2    
    16   14   30 am   
    17   18   16 1    
    18   18   17 1    
    19   18   20 1    
    20   20   19 1    
    21   20   24 1    
    22   20   28 1    
    23   24   21 1    
    24   24   22 1    
    25   24   23 1    
    26   28   25 1    
    27   28   26 1    
    28   28   27 1    
    29   30   29 1    
    30   30   32 1    
    31   32   31 1    
    32   32   33 1    
    33   32   37 1    
    34   33   34 ar   
    35   33   49 ar   
    36   37   35 1    
    37   37   36 1    
    38   37   38 1    
    39   38   40 ar   
    40   38   42 ar   
    41   40   39 1    
    42   40   44 ar   
    43   42   41 1    
    44   42   46 ar   
    45   44   43 1    
    46   44   48 ar   
    47   46   45 1    
    48   46   48 ar   
    49   48   47 1    
@<TRIPOS>SUBSTRUCTURE
     1 ****        1 TEMP              0 ****  ****    0 ROOT 
@<TRIPOS>NORMAL
@<TRIPOS>ALT_TYPE
MMFF94_ALT_TYPE_SET 
MMFF94 1 HC 2 CR 3 HC 4 HC 5 HC 6 CR 7 CO2M 8 O2CM 9 O2CM 10 HNR 11 NR \
12 HC 13 CR 14 C=ON 15 O=CN 16 HC 17 HC 18 CR 19 HC 20 CR \
21 HC 22 HC 23 HC 24 CR 25 HC 26 HC 27 HC 28 CR 29 HNCO \
30 NC=O 31 HC 32 CR 33 CO2M 34 O2CM 35 HC 36 HC 37 CR \
38 CB 39 HC 40 CB 41 HC 42 CB 43 HC 44 CB 45 HC 46 CB \
47 HC 48 CB 49 O2CM 
@<TRIPOS>FF_PBC
FORCE_FIELD_SETUP_FEATURE Force Field Setup information
v1.0  0 0.000000 0.000000 0.000000 0.000000 0.000000 0.000000 NONE 0 0 0 0 0 0 0 0 0 0 0 0 0
