#	Name:			hoch2co_fagnh2_min
#	Creating user name:	jeff
#	Creation time:		Thu Dec 19 11:49:51 2002

#	Modifying user name:	jeff
#	Modification time:	Thu Dec 19 11:49:51 2002

@<TRIPOS>MOLECULE
hoch2co_fagnh2_min
   47    47     1     2     0
SMALL
GASTEIGER


@<TRIPOS>ATOM
      1 H1         -1.310000    0.200000   -3.945000 H         1 <1>         0.059770 
      2 C1         -1.323000    0.342000   -2.864000 C.3       1 <1>         0.103372 
      3 H2         -1.720000   -0.987000   -1.142000 H         1 <1>         0.149531 
      4 N2         -1.398000   -0.951000   -2.182000 N.am      1 <1>        -0.301802 
      5 H32        -3.431000    0.536000   -2.471000 H         1 <1>         0.033588 
      6 H31        -2.400000    1.631000   -1.518000 H         1 <1>         0.033588 
      7 C3         -2.551000    1.179000   -2.498000 C.3       1 <1>        -0.000657 
      8 C4         -0.062000    1.041000   -2.452000 C.2       1 <1>         0.234259 
      9 O5          0.595000    1.770000   -3.197000 O.2       1 <1>        -0.273751 
     10 C6         -2.755000    2.256000   -3.514000 C.ar      1 <1>        -0.045141 
     11 H7         -2.491000    3.866000   -2.105000 H         1 <1>         0.062030 
     12 C7         -2.684000    3.595000   -3.144000 C.ar      1 <1>        -0.058501 
     13 H8         -3.062000    0.862000   -5.127000 H         1 <1>         0.062030 
     14 C8         -3.007000    1.912000   -4.840000 C.ar      1 <1>        -0.058501 
     15 H9         -2.798000    5.639000   -3.818000 H         1 <1>         0.061766 
     16 C9         -2.859000    4.589000   -4.103000 C.ar      1 <1>        -0.061500 
     17 H10        -3.389000    2.631000   -6.836000 H         1 <1>         0.061766 
     18 C10        -3.188000    2.902000   -5.799000 C.ar      1 <1>        -0.061500 
     19 H11        -3.250000    5.017000   -6.176000 H         1 <1>         0.061758 
     20 C11        -3.111000    4.238000   -5.427000 C.ar      1 <1>        -0.061742 
     21 H122        5.320000   -0.652000    1.479000 H         1 <1>         0.055765 
     22 H121        3.853000   -0.410000    2.458000 H         1 <1>         0.055765 
     23 C12         4.235000   -0.761000    1.500000 C.3       1 <1>         0.087945 
     24 H132       -0.322000   -3.959000   -2.026000 H         1 <1>         0.065373 
     25 H131       -2.042000   -3.995000   -2.483000 H         1 <1>         0.065373 
     26 C13        -1.253000   -3.393000   -2.032000 C.3       1 <1>         0.120217 
     27 H14         2.382000    1.160000   -1.607000 H         1 <1>         0.059162 
     28 C14         1.740000    1.246000   -0.730000 C.3       1 <1>         0.096615 
     29 H15        -0.306000    0.396000   -0.409000 H         1 <1>         0.149496 
     30 N15         0.368000    0.845000   -1.138000 N.am      1 <1>        -0.302735 
     31 H163        2.766000    2.973000    0.052000 H         1 <1>         0.025218 
     32 H162        1.418000    3.355000   -1.045000 H         1 <1>         0.025218 
     33 H161        1.086000    2.801000    0.613000 H         1 <1>         0.025218 
     34 C16         1.753000    2.699000   -0.242000 C.3       1 <1>        -0.038077 
     35 C17         2.286000    0.334000    0.339000 C.2       1 <1>         0.233478 
     36 O18         1.554000   -0.172000    1.178000 O.2       1 <1>        -0.273780 
     37 H192        4.413000   -4.060000    0.352000 H         1 <1>         0.144978 
     38 H191        5.458000   -2.551000   -0.091000 H         1 <1>         0.144978 
     39 N19         4.642000   -3.001000    0.475000 N.am      1 <1>        -0.328034 
     40 H20         4.315000    0.501000   -0.332000 H         1 <1>         0.149242 
     41 N20         3.652000    0.075000    0.421000 N.am      1 <1>        -0.305207 
     42 O21        -0.643000   -2.162000   -3.998000 O.2       1 <1>        -0.273282 
     43 H22        -1.747000   -3.988000   -0.120000 H         1 <1>         0.210042 
     44 O22        -1.615000   -3.069000   -0.693000 O.3       1 <1>        -0.385810 
     45 O23         2.987000   -2.763000    1.987000 O.2       1 <1>        -0.274312 
     46 C24         3.895000   -2.227000    1.351000 C.2       1 <1>         0.227661 
     47 C25        -1.067000   -2.140000   -2.836000 C.2       1 <1>         0.239132 
@<TRIPOS>BOND
     1    2    1 1    
     2    2    4 1    
     3    2    7 1    
     4    8    2 1    
     5    4    3 1    
     6    4   47 am   
     7    7    5 1    
     8    7    6 1    
     9    7   10 1    
    10    8    9 2    
    11   30    8 am   
    12   10   12 ar   
    13   10   14 ar   
    14   12   11 1    
    15   12   16 ar   
    16   14   13 1    
    17   14   18 ar   
    18   16   15 1    
    19   16   20 ar   
    20   18   17 1    
    21   18   20 ar   
    22   20   19 1    
    23   23   21 1    
    24   23   22 1    
    25   23   41 1    
    26   46   23 1    
    27   26   24 1    
    28   26   25 1    
    29   26   44 1    
    30   47   26 1    
    31   28   27 1    
    32   28   30 1    
    33   28   34 1    
    34   35   28 1    
    35   30   29 1    
    36   34   31 1    
    37   34   32 1    
    38   34   33 1    
    39   35   36 2    
    40   41   35 am   
    41   39   37 1    
    42   39   38 1    
    43   39   46 am   
    44   41   40 1    
    45   47   42 2    
    46   44   43 1    
    47   46   45 2    
@<TRIPOS>SUBSTRUCTURE
     1 ****       37 TEMP              0 ****  ****    0 ROOT 
@<TRIPOS>NORMAL
@<TRIPOS>ALT_TYPE
MMFF94_ALT_TYPE_SET 
MMFF94 1 HC 2 CR 3 HNCO 4 NC=O 5 HC 6 HC 7 CR 8 C=ON 9 O=CN 10 CB 11 HC \
12 CB 13 HC 14 CB 15 HC 16 CB 17 HC 18 CB 19 HC 20 CB \
21 HC 22 HC 23 CR 24 HC 25 HC 26 CR 27 HC 28 CR 29 HNCO \
30 NC=O 31 HC 32 HC 33 HC 34 CR 35 C=ON 36 O=CN 37 HNCO \
38 HNCO 39 NC=O 40 HNCO 41 NC=O 42 O=CN 43 HOR 44 OR \
45 O=CN 46 C=ON 47 C=ON 
@<TRIPOS>FF_PBC
FORCE_FIELD_SETUP_FEATURE Force Field Setup information
v1.0  0 0.000000 0.000000 0.000000 0.000000 0.000000 0.000000 NONE 0 0 0 0 0 0 0 0 0 0 0 0 0
