#	Name:			nhohbzmagoh_min
#	Creating user name:	jeff
#	Creation time:		Thu Dec 19 11:49:51 2002

#	Modifying user name:	jeff
#	Modification time:	Thu Dec 19 11:49:51 2002

@<TRIPOS>MOLECULE
nhohbzmagoh_min
   42    42     1     2     0
SMALL
GASTEIGER


@<TRIPOS>ATOM
      1 H1          2.439000    1.407000   -1.185000 H         1 <1>         0.059161 
      2 C1          1.771000    1.318000   -0.328000 C.3       1 <1>         0.096575 
      3 H2         -0.297000    0.444000   -0.210000 H         1 <1>         0.149458 
      4 N2          0.433000    0.941000   -0.848000 N.am      1 <1>        -0.303633 
      5 H33         2.691000    2.926000    0.774000 H         1 <1>         0.025218 
      6 H32         1.361000    3.434000   -0.294000 H         1 <1>         0.025218 
      7 H31         1.004000    2.592000    1.233000 H         1 <1>         0.025218 
      8 C3          1.702000    2.664000    0.399000 C.3       1 <1>        -0.038077 
      9 C4          2.345000    0.261000    0.579000 C.2       1 <1>         0.233379 
     10 O5          1.649000   -0.327000    1.397000 O.2       1 <1>        -0.273781 
     11 H6         -0.709000   -2.867000   -4.973000 H         1 <1>         0.241381 
     12 O6         -1.703000   -2.524000   -4.688000 O.3       1 <1>        -0.295167 
     13 H7         -2.867000   -1.005000   -3.771000 H         1 <1>         0.182214 
     14 N7         -1.857000   -1.315000   -4.040000 N.am      1 <1>        -0.196858 
     15 H82         5.380000   -0.926000    1.449000 H         1 <1>         0.052331 
     16 H81         3.929000   -0.826000    2.476000 H         1 <1>         0.052331 
     17 C8          4.295000   -1.030000    1.470000 C.3       1 <1>         0.051230 
     18 H9          4.338000    0.449000   -0.200000 H         1 <1>         0.149116 
     19 N9          3.701000   -0.044000    0.535000 N.am      1 <1>        -0.308535 
     20 C10         3.934000   -2.448000    1.098000 C.2       1 <1>         0.058802 
     21 C11        -0.825000   -0.482000   -3.713000 C.2       1 <1>         0.247684 
     22 O12         0.162000   -0.849000   -4.309000 O.2       1 <1>        -0.272897 
     23 C13         0.139000    1.242000   -2.176000 C.2       1 <1>         0.225931 
     24 O14         0.866000    1.958000   -2.849000 O.2       1 <1>        -0.274961 
     25 H15        -1.160000    1.502000   -3.694000 H         1 <1>         0.049315 
     26 C15        -1.047000    0.749000   -2.915000 C.3       1 <1>         0.117428 
     27 H162       -3.142000    0.269000   -2.722000 H         1 <1>         0.032512 
     28 H161       -2.339000    0.682000   -1.188000 H         1 <1>         0.032512 
     29 C16        -2.406000    0.920000   -2.250000 C.3       1 <1>        -0.008058 
     30 C17        -2.788000    2.353000   -2.436000 C.ar      1 <1>        -0.046177 
     31 H18        -3.149000    2.737000   -0.346000 H         1 <1>         0.062029 
     32 C18        -3.128000    3.155000   -1.352000 C.ar      1 <1>        -0.058541 
     33 H19        -2.491000    2.261000   -4.569000 H         1 <1>         0.062029 
     34 C19        -2.757000    2.892000   -3.721000 C.ar      1 <1>        -0.058541 
     35 H20        -3.716000    5.126000   -0.713000 H         1 <1>         0.061766 
     36 C20        -3.443000    4.496000   -1.560000 C.ar      1 <1>        -0.061501 
     37 H21        -3.032000    4.655000   -4.931000 H         1 <1>         0.061766 
     38 C21        -3.064000    4.233000   -3.926000 C.ar      1 <1>        -0.061501 
     39 H22        -3.660000    6.086000   -2.998000 H         1 <1>         0.061758 
     40 C22        -3.412000    5.036000   -2.842000 C.ar      1 <1>        -0.061742 
     41 O23         3.005000   -3.075000    1.596000 O.co2     1 <1>        -0.548197 
     42 O24         4.686000   -3.060000    0.164000 O.co2     1 <1>        -0.548197 
@<TRIPOS>BOND
     1    2    1 1    
     2    4    2 1    
     3    2    8 1    
     4    2    9 1    
     5    4    3 1    
     6   23    4 am   
     7    8    5 1    
     8    8    6 1    
     9    8    7 1    
    10    9   10 2    
    11    9   19 am   
    12   12   11 1    
    13   14   12 1    
    14   14   13 1    
    15   21   14 am   
    16   17   15 1    
    17   17   16 1    
    18   19   17 1    
    19   17   20 1    
    20   19   18 1    
    21   20   41 ar   
    22   20   42 ar   
    23   21   22 2    
    24   26   21 1    
    25   23   24 2    
    26   23   26 1    
    27   26   25 1    
    28   26   29 1    
    29   29   27 1    
    30   29   28 1    
    31   29   30 1    
    32   30   32 ar   
    33   30   34 ar   
    34   32   31 1    
    35   32   36 ar   
    36   34   33 1    
    37   34   38 ar   
    38   36   35 1    
    39   36   40 ar   
    40   38   37 1    
    41   38   40 ar   
    42   40   39 1    
@<TRIPOS>SUBSTRUCTURE
     1 ****       15 TEMP              0 ****  ****    0 ROOT 
@<TRIPOS>NORMAL
@<TRIPOS>ALT_TYPE
MMFF94_ALT_TYPE_SET 
MMFF94 1 HC 2 CR 3 HNCO 4 NC=O 5 HC 6 HC 7 HC 8 CR 9 C=ON 10 O=CN 11 HO \
12 -O- 13 HNCO 14 NC=O 15 HC 16 HC 17 CR 18 HNCO 19 NC=O \
20 CO2M 21 C=ON 22 O=CN 23 C=ON 24 O=CN 25 HC 26 CR \
27 HC 28 HC 29 CR 30 CB 31 HC 32 CB 33 HC 34 CB 35 HC \
36 CB 37 HC 38 CB 39 HC 40 CB 41 O2CM 42 O2CM 
@<TRIPOS>FF_PBC
FORCE_FIELD_SETUP_FEATURE Force Field Setup information
v1.0  0 0.000000 0.000000 0.000000 0.000000 0.000000 0.000000 NONE 0 0 0 0 0 0 0 0 0 0 0 0 0
