#	Name:			nhohmalagnh2_min
#	Creating user name:	jeff
#	Creation time:		Thu Dec 19 11:49:52 2002

#	Modifying user name:	jeff
#	Modification time:	Thu Dec 19 11:49:52 2002

@<TRIPOS>MOLECULE
nhohmalagnh2_min
   34    33     1     2     0
SMALL
GASTEIGER


@<TRIPOS>ATOM
      1 H1          2.490000    1.219000   -1.237000 H         1 <1>         0.059161 
      2 C1          1.837000    1.203000   -0.364000 C.3       1 <1>         0.096576 
      3 H2         -0.251000    0.392000   -0.190000 H         1 <1>         0.149458 
      4 N2          0.470000    0.878000   -0.847000 N.am      1 <1>        -0.303650 
      5 H33         2.863000    2.804000    0.653000 H         1 <1>         0.025218 
      6 H32         1.542000    3.339000   -0.413000 H         1 <1>         0.025218 
      7 H31         1.169000    2.581000    1.154000 H         1 <1>         0.025218 
      8 C3          1.854000    2.581000    0.306000 C.3       1 <1>        -0.038077 
      9 C4          2.373000    0.159000    0.580000 C.2       1 <1>         0.233477 
     10 O5          1.648000   -0.412000    1.384000 O.2       1 <1>        -0.273780 
     11 H6         -0.829000   -2.488000   -5.261000 H         1 <1>         0.241381 
     12 O6         -1.689000   -2.540000   -4.593000 O.3       1 <1>        -0.295167 
     13 H7         -2.705000   -1.578000   -2.904000 H         1 <1>         0.182214 
     14 N7         -1.863000   -1.569000   -3.595000 N.am      1 <1>        -0.196875 
     15 H82         5.409000   -0.964000    1.555000 H         1 <1>         0.055765 
     16 H81         3.957000   -0.799000    2.571000 H         1 <1>         0.055765 
     17 C8          4.324000   -1.069000    1.581000 C.3       1 <1>         0.087945 
     18 H9          4.379000    0.313000   -0.165000 H         1 <1>         0.149242 
     19 N9          3.733000   -0.144000    0.584000 N.am      1 <1>        -0.305207 
     20 C10         3.971000   -2.511000    1.311000 C.2       1 <1>         0.227661 
     21 O11         3.071000   -3.099000    1.912000 O.2       1 <1>        -0.274312 
     22 C12        -0.874000   -0.597000   -3.562000 C.2       1 <1>         0.247094 
     23 O13         0.076000   -0.849000   -4.286000 O.2       1 <1>        -0.272918 
     24 C14         0.130000    1.207000   -2.158000 C.2       1 <1>         0.225341 
     25 O15         0.844000    1.932000   -2.844000 O.2       1 <1>        -0.274983 
     26 H16        -1.217000    1.417000   -3.653000 H         1 <1>         0.048709 
     27 C16        -1.082000    0.696000   -2.847000 C.3       1 <1>         0.110709 
     28 H173       -2.449000    1.878000   -1.679000 H         1 <1>         0.024155 
     29 H172       -3.228000    0.844000   -2.900000 H         1 <1>         0.024155 
     30 H171       -2.576000    0.123000   -1.408000 H         1 <1>         0.024155 
     31 C17        -2.430000    0.900000   -2.159000 C.3       1 <1>        -0.045570 
     32 H192        4.468000   -4.243000    0.138000 H         1 <1>         0.144978 
     33 H191        5.508000   -2.700000   -0.181000 H         1 <1>         0.144978 
     34 N19         4.701000   -3.201000    0.354000 N.am      1 <1>        -0.328034 
@<TRIPOS>BOND
     1    2    1 1    
     2    4    2 1    
     3    2    8 1    
     4    2    9 1    
     5    4    3 1    
     6   24    4 am   
     7    8    5 1    
     8    8    6 1    
     9    8    7 1    
    10    9   10 2    
    11    9   19 am   
    12   12   11 1    
    13   14   12 1    
    14   14   13 1    
    15   22   14 am   
    16   17   15 1    
    17   17   16 1    
    18   19   17 1    
    19   17   20 1    
    20   19   18 1    
    21   20   34 am   
    22   20   21 2    
    23   22   23 2    
    24   27   22 1    
    25   24   25 2    
    26   24   27 1    
    27   27   26 1    
    28   27   31 1    
    29   31   28 1    
    30   31   29 1    
    31   31   30 1    
    32   34   32 1    
    33   34   33 1    
@<TRIPOS>SUBSTRUCTURE
     1 ****       15 TEMP              0 ****  ****    0 ROOT 
@<TRIPOS>NORMAL
@<TRIPOS>ALT_TYPE
MMFF94_ALT_TYPE_SET 
MMFF94 1 HC 2 CR 3 HNCO 4 NC=O 5 HC 6 HC 7 HC 8 CR 9 C=ON 10 O=CN 11 HO \
12 -O- 13 HNCO 14 NC=O 15 HC 16 HC 17 CR 18 HNCO 19 NC=O \
20 C=ON 21 O=CN 22 C=ON 23 O=CN 24 C=ON 25 O=CN 26 HC \
27 CR 28 HC 29 HC 30 HC 31 CR 32 HNCO 33 HNCO 34 NC=O \

@<TRIPOS>FF_PBC
FORCE_FIELD_SETUP_FEATURE Force Field Setup information
v1.0  0 0.000000 0.000000 0.000000 0.000000 0.000000 0.000000 NONE 0 0 0 0 0 0 0 0 0 0 0 0 0
