#	Name:			nhohleu_min
#	Creating user name:	jeff
#	Creation time:		Thu Dec 19 11:49:52 2002

#	Modifying user name:	jeff
#	Modification time:	Thu Dec 19 11:49:52 2002

@<TRIPOS>MOLECULE
nhohleu_min
   24    23     1     2     0
SMALL
GASTEIGER


@<TRIPOS>ATOM
      1 H22        -0.158000    2.162000   -4.213000 H         1 <1>         0.118900 
      2 H21         0.301000    2.625000   -2.556000 H         1 <1>         0.118900 
      3 N2          0.233000    1.798000   -3.263000 N.3       1 <1>        -0.319879 
      4 H3         -0.267000    0.409000   -1.774000 H         1 <1>         0.055492 
      5 C3         -0.673000    0.760000   -2.722000 C.3       1 <1>         0.084487 
      6 C4         -0.732000   -0.414000   -3.651000 C.2       1 <1>         0.252250 
      7 O5          0.171000   -0.854000   -4.326000 O.2       1 <1>        -0.272022 
      8 H62        -2.799000    0.526000   -2.480000 H         1 <1>         0.028738 
      9 H61        -2.058000    1.707000   -1.374000 H         1 <1>         0.028738 
     10 C6         -2.070000    1.332000   -2.397000 C.3       1 <1>        -0.026822 
     11 H7         -1.645000    3.141000   -3.450000 H         1 <1>         0.029608 
     12 C7         -2.503000    2.479000   -3.332000 C.3       1 <1>        -0.044864 
     13 H83        -3.181000    2.834000   -5.350000 H         1 <1>         0.023234 
     14 H82        -2.028000    1.488000   -5.189000 H         1 <1>         0.023234 
     15 H81        -3.715000    1.283000   -4.658000 H         1 <1>         0.023234 
     16 C8         -2.884000    1.986000   -4.734000 C.3       1 <1>        -0.062604 
     17 H93        -3.967000    4.060000   -3.374000 H         1 <1>         0.023234 
     18 H92        -4.510000    2.577000   -2.553000 H         1 <1>         0.023234 
     19 H91        -3.356000    3.667000   -1.749000 H         1 <1>         0.023234 
     20 C9         -3.668000    3.251000   -2.707000 C.3       1 <1>        -0.062604 
     21 H10        -2.817000   -0.875000   -3.645000 H         1 <1>         0.182244 
     22 N10        -1.828000   -1.189000   -3.979000 N.am      1 <1>        -0.196206 
     23 H11        -2.590000   -2.950000   -4.968000 H         1 <1>         0.241381 
     24 O11        -1.705000   -2.362000   -4.727000 O.3       1 <1>        -0.295143 
@<TRIPOS>BOND
     1    1    3 1    
     2    3    2 1    
     3    3    5 1    
     4    5    4 1    
     5    5    6 1    
     6    5   10 1    
     7    6    7 2    
     8    6   22 am   
     9   10    8 1    
    10   10    9 1    
    11   10   12 1    
    12   12   11 1    
    13   12   16 1    
    14   12   20 1    
    15   16   13 1    
    16   16   14 1    
    17   16   15 1    
    18   20   17 1    
    19   20   18 1    
    20   20   19 1    
    21   22   21 1    
    22   22   24 1    
    23   24   23 1    
@<TRIPOS>SUBSTRUCTURE
     1 ****        1 TEMP              0 ****  ****    0 ROOT 
@<TRIPOS>NORMAL
@<TRIPOS>ALT_TYPE
MMFF94_ALT_TYPE_SET 
MMFF94 1 HNR 2 HNR 3 NR 4 HC 5 CR 6 C=ON 7 O=CN 8 HC 9 HC 10 CR 11 HC \
12 CR 13 HC 14 HC 15 HC 16 CR 17 HC 18 HC 19 HC 20 CR \
21 HNCO 22 NC=O 23 HO 24 -O- 
@<TRIPOS>FF_PBC
FORCE_FIELD_SETUP_FEATURE Force Field Setup information
v1.0  0 0.000000 0.000000 0.000000 0.000000 0.000000 0.000000 NONE 0 0 0 0 0 0 0 0 0 0 0 0 0
