#	Name:			nhohibmagnh2_min
#	Creating user name:	jeff
#	Creation time:		Thu Dec 19 11:49:52 2002

#	Modifying user name:	jeff
#	Modification time:	Thu Dec 19 11:49:52 2002

@<TRIPOS>MOLECULE
nhohibmagnh2_min
   43    42     1     2     0
SMALL
GASTEIGER


@<TRIPOS>ATOM
      1 H1          2.476000    1.203000   -1.250000 H         1 <1>         0.059161 
      2 C1          1.819000    1.184000   -0.381000 C.3       1 <1>         0.096576 
      3 H2         -0.280000    0.380000   -0.241000 H         1 <1>         0.149458 
      4 N2          0.453000    0.872000   -0.880000 N.am      1 <1>        -0.303642 
      5 H33         2.846000    2.765000    0.664000 H         1 <1>         0.025218 
      6 H32         1.538000    3.321000   -0.408000 H         1 <1>         0.025218 
      7 H31         1.146000    2.548000    1.147000 H         1 <1>         0.025218 
      8 C3          1.839000    2.553000    0.305000 C.3       1 <1>        -0.038077 
      9 C4          2.349000    0.126000    0.553000 C.2       1 <1>         0.233477 
     10 O5          1.619000   -0.463000    1.339000 O.2       1 <1>        -0.273780 
     11 H6         -0.705000   -2.853000   -4.979000 H         1 <1>         0.241381 
     12 O6         -1.699000   -2.508000   -4.694000 O.3       1 <1>        -0.295167 
     13 H7         -2.861000   -0.981000   -3.787000 H         1 <1>         0.182214 
     14 N7         -1.852000   -1.292000   -4.056000 N.am      1 <1>        -0.196867 
     15 H82         5.382000   -0.979000    1.561000 H         1 <1>         0.055765 
     16 H81         3.918000   -0.828000    2.562000 H         1 <1>         0.055765 
     17 C8          4.298000   -1.091000    1.575000 C.3       1 <1>         0.087945 
     18 H9          4.365000    0.305000   -0.160000 H         1 <1>         0.149242 
     19 N9          3.711000   -0.163000    0.576000 N.am      1 <1>        -0.305207 
     20 C10         3.958000   -2.535000    1.295000 C.2       1 <1>         0.227661 
     21 O11         3.059000   -3.133000    1.886000 O.2       1 <1>        -0.274312 
     22 C12        -0.819000   -0.452000   -3.741000 C.2       1 <1>         0.247373 
     23 O13         0.174000   -0.829000   -4.320000 O.2       1 <1>        -0.272908 
     24 C14         0.140000    1.230000   -2.192000 C.2       1 <1>         0.225620 
     25 O15         0.871000    1.953000   -2.853000 O.2       1 <1>        -0.274972 
     26 H16        -1.172000    1.581000   -3.694000 H         1 <1>         0.048996 
     27 C16        -1.049000    0.787000   -2.958000 C.3       1 <1>         0.113733 
     28 H172       -3.018000    0.022000   -2.585000 H         1 <1>         0.027961 
     29 H171       -2.224000    0.743000   -1.164000 H         1 <1>         0.027961 
     30 C17        -2.388000    0.841000   -2.237000 C.3       1 <1>        -0.031063 
     31 H18        -2.468000    2.980000   -2.128000 H         1 <1>         0.029579 
     32 C18        -3.083000    2.173000   -2.525000 C.3       1 <1>        -0.045582 
     33 H193       -4.949000    3.126000   -2.056000 H         1 <1>         0.023234 
     34 H192       -5.050000    1.359000   -2.247000 H         1 <1>         0.023234 
     35 H191       -4.325000    2.055000   -0.778000 H         1 <1>         0.023234 
     36 C19        -4.449000    2.179000   -1.854000 C.3       1 <1>        -0.062634 
     37 H203       -3.744000    3.351000   -4.210000 H         1 <1>         0.023234 
     38 H202       -2.266000    2.407000   -4.510000 H         1 <1>         0.023234 
     39 H201       -3.848000    1.592000   -4.459000 H         1 <1>         0.023234 
     40 C20        -3.247000    2.397000   -4.036000 C.3       1 <1>        -0.062634 
     41 H242        4.480000   -4.257000    0.118000 H         1 <1>         0.144978 
     42 H241        5.509000   -2.704000   -0.185000 H         1 <1>         0.144978 
     43 N24         4.702000   -3.214000    0.341000 N.am      1 <1>        -0.328034 
@<TRIPOS>BOND
     1    2    1 1    
     2    4    2 1    
     3    2    8 1    
     4    2    9 1    
     5    4    3 1    
     6   24    4 am   
     7    8    5 1    
     8    8    6 1    
     9    8    7 1    
    10    9   10 2    
    11    9   19 am   
    12   12   11 1    
    13   14   12 1    
    14   14   13 1    
    15   22   14 am   
    16   17   15 1    
    17   17   16 1    
    18   19   17 1    
    19   17   20 1    
    20   19   18 1    
    21   20   21 2    
    22   20   43 am   
    23   22   23 2    
    24   27   22 1    
    25   24   25 2    
    26   24   27 1    
    27   27   26 1    
    28   27   30 1    
    29   30   28 1    
    30   30   29 1    
    31   30   32 1    
    32   32   31 1    
    33   32   36 1    
    34   32   40 1    
    35   36   33 1    
    36   36   34 1    
    37   36   35 1    
    38   40   37 1    
    39   40   38 1    
    40   40   39 1    
    41   43   41 1    
    42   43   42 1    
@<TRIPOS>SUBSTRUCTURE
     1 ****       15 TEMP              0 ****  ****    0 ROOT 
@<TRIPOS>NORMAL
@<TRIPOS>ALT_TYPE
MMFF94_ALT_TYPE_SET 
MMFF94 1 HC 2 CR 3 HNCO 4 NC=O 5 HC 6 HC 7 HC 8 CR 9 C=ON 10 O=CN 11 HO \
12 -O- 13 HNCO 14 NC=O 15 HC 16 HC 17 CR 18 HNCO 19 NC=O \
20 C=ON 21 O=CN 22 C=ON 23 O=CN 24 C=ON 25 O=CN 26 HC \
27 CR 28 HC 29 HC 30 CR 31 HC 32 CR 33 HC 34 HC 35 HC \
36 CR 37 HC 38 HC 39 HC 40 CR 41 HNCO 42 HNCO 43 NC=O \

@<TRIPOS>FF_PBC
FORCE_FIELD_SETUP_FEATURE Force Field Setup information
v1.0  0 0.000000 0.000000 0.000000 0.000000 0.000000 0.000000 NONE 0 0 0 0 0 0 0 0 0 0 0 0 0
