#	Name:			nhohbzmoet_min
#	Creating user name:	jeff
#	Creation time:		Thu Dec 19 11:49:51 2002

#	Modifying user name:	jeff
#	Modification time:	Thu Dec 19 11:49:51 2002

@<TRIPOS>MOLECULE
nhohbzmoet_min
   32    32     1     2     0
SMALL
GASTEIGER


@<TRIPOS>ATOM
      1 H12         1.830000    0.844000    0.346000 H         1 <1>         0.056304 
      2 H11         2.003000    2.040000   -0.960000 H         1 <1>         0.056304 
      3 C1          1.314000    1.608000   -0.235000 C.3       1 <1>         0.054264 
      4 O2          0.218000    1.016000   -0.921000 O.3       1 <1>        -0.314894 
      5 H33         1.662000    3.155000    1.227000 H         1 <1>         0.025189 
      6 H32         0.299000    3.475000    0.128000 H         1 <1>         0.025189 
      7 H31         0.126000    2.279000    1.435000 H         1 <1>         0.025189 
      8 C3          0.814000    2.709000    0.707000 C.3       1 <1>        -0.040979 
      9 H6         -0.700000   -2.890000   -4.946000 H         1 <1>         0.241381 
     10 O6         -1.696000   -2.544000   -4.673000 O.3       1 <1>        -0.295167 
     11 H7         -2.870000   -1.012000   -3.800000 H         1 <1>         0.182215 
     12 N7         -1.856000   -1.320000   -4.057000 N.am      1 <1>        -0.196837 
     13 C11        -0.837000   -0.466000   -3.744000 C.2       1 <1>         0.248465 
     14 O12         0.167000   -0.830000   -4.313000 O.2       1 <1>        -0.272869 
     15 C13         0.047000    1.312000   -2.228000 C.2       1 <1>         0.274553 
     16 O14         0.814000    2.027000   -2.846000 O.2       1 <1>        -0.264120 
     17 H15        -1.214000    1.498000   -3.812000 H         1 <1>         0.050118 
     18 C15        -1.102000    0.785000   -2.996000 C.3       1 <1>         0.126550 
     19 H162       -3.198000    0.290000   -2.821000 H         1 <1>         0.032536 
     20 H161       -2.398000    0.650000   -1.272000 H         1 <1>         0.032536 
     21 C16        -2.462000    0.923000   -2.325000 C.3       1 <1>        -0.007299 
     22 C17        -2.832000    2.364000   -2.469000 C.ar      1 <1>        -0.046152 
     23 H18        -3.171000    2.701000   -0.367000 H         1 <1>         0.062029 
     24 C18        -3.152000    3.144000   -1.363000 C.ar      1 <1>        -0.058540 
     25 H19        -2.551000    2.320000   -4.605000 H         1 <1>         0.062029 
     26 C19        -2.801000    2.935000   -3.741000 C.ar      1 <1>        -0.058540 
     27 H20        -3.704000    5.107000   -0.672000 H         1 <1>         0.061766 
     28 C20        -3.447000    4.494000   -1.536000 C.ar      1 <1>        -0.061501 
     29 H21        -3.054000    4.731000   -4.905000 H         1 <1>         0.061766 
     30 C21        -3.087000    4.285000   -3.911000 C.ar      1 <1>        -0.061501 
     31 H22        -3.651000    6.123000   -2.933000 H         1 <1>         0.061758 
     32 C22        -3.417000    5.066000   -2.805000 C.ar      1 <1>        -0.061742 
@<TRIPOS>BOND
     1    3    1 1    
     2    3    2 1    
     3    4    3 1    
     4    3    8 1    
     5   15    4 1    
     6    8    5 1    
     7    8    6 1    
     8    8    7 1    
     9   10    9 1    
    10   12   10 1    
    11   12   11 1    
    12   13   12 am   
    13   13   14 2    
    14   18   13 1    
    15   15   16 2    
    16   15   18 1    
    17   18   17 1    
    18   18   21 1    
    19   21   19 1    
    20   21   20 1    
    21   21   22 1    
    22   22   24 ar   
    23   22   26 ar   
    24   24   23 1    
    25   24   28 ar   
    26   26   25 1    
    27   26   30 ar   
    28   28   27 1    
    29   28   32 ar   
    30   30   29 1    
    31   30   32 ar   
    32   32   31 1    
@<TRIPOS>SUBSTRUCTURE
     1 ****        1 TEMP              0 ****  ****    0 ROOT 
@<TRIPOS>NORMAL
@<TRIPOS>ALT_TYPE
MMFF94_ALT_TYPE_SET 
MMFF94 1 HC 2 HC 3 CR 4 OC=O 5 HC 6 HC 7 HC 8 CR 9 HO 10 -O- 11 HNCO \
12 NC=O 13 C=ON 14 O=CN 15 COO 16 O=CO 17 HC 18 CR \
19 HC 20 HC 21 CR 22 CB 23 HC 24 CB 25 HC 26 CB 27 HC \
28 CB 29 HC 30 CB 31 HC 32 CB 
@<TRIPOS>FF_PBC
FORCE_FIELD_SETUP_FEATURE Force Field Setup information
v1.0  0 0.000000 0.000000 0.000000 0.000000 0.000000 0.000000 NONE 0 0 0 0 0 0 0 0 0 0 0 0 0
