#	Name:			nhohbzmagnh2_min
#	Creating user name:	jeff
#	Creation time:		Thu Dec 19 11:49:51 2002

#	Modifying user name:	jeff
#	Modification time:	Thu Dec 19 11:49:51 2002

@<TRIPOS>MOLECULE
nhohbzmagnh2_min
   44    44     1     2     0
SMALL
GASTEIGER


@<TRIPOS>ATOM
      1 H1          2.503000    1.237000   -1.210000 H         1 <1>         0.059161 
      2 C1          1.839000    1.204000   -0.347000 C.3       1 <1>         0.096576 
      3 H2         -0.250000    0.381000   -0.212000 H         1 <1>         0.149458 
      4 N2          0.481000    0.875000   -0.852000 N.am      1 <1>        -0.303633 
      5 H33         2.837000    2.798000    0.708000 H         1 <1>         0.025218 
      6 H32         1.525000    3.337000   -0.369000 H         1 <1>         0.025218 
      7 H31         1.138000    2.553000    1.182000 H         1 <1>         0.025218 
      8 C3          1.834000    2.572000    0.343000 C.3       1 <1>        -0.038077 
      9 C4          2.373000    0.149000    0.588000 C.2       1 <1>         0.233477 
     10 O5          1.647000   -0.426000    1.388000 O.2       1 <1>        -0.273780 
     11 H6         -0.711000   -2.861000   -4.978000 H         1 <1>         0.241381 
     12 O6         -1.705000   -2.518000   -4.691000 O.3       1 <1>        -0.295167 
     13 H7         -2.866000   -1.000000   -3.767000 H         1 <1>         0.182214 
     14 N7         -1.857000   -1.311000   -4.038000 N.am      1 <1>        -0.196858 
     15 H82         3.952000   -0.824000    2.573000 H         1 <1>         0.055765 
     16 H81         5.406000   -0.985000    1.558000 H         1 <1>         0.055765 
     17 C8          4.321000   -1.089000    1.582000 C.3       1 <1>         0.087945 
     18 H9          4.380000    0.304000   -0.156000 H         1 <1>         0.149242 
     19 N9          3.732000   -0.155000    0.590000 N.am      1 <1>        -0.305207 
     20 C10         3.967000   -2.528000    1.301000 C.2       1 <1>         0.227661 
     21 O11         3.064000   -3.119000    1.895000 O.2       1 <1>        -0.274312 
     22 C12        -0.821000   -0.483000   -3.710000 C.2       1 <1>         0.247684 
     23 O13         0.163000   -0.854000   -4.309000 O.2       1 <1>        -0.272897 
     24 C14         0.168000    1.215000   -2.167000 C.2       1 <1>         0.225931 
     25 O15         0.889000    1.941000   -2.836000 O.2       1 <1>        -0.274961 
     26 H16        -1.135000    1.511000   -3.674000 H         1 <1>         0.049315 
     27 C16        -1.028000    0.745000   -2.905000 C.3       1 <1>         0.117428 
     28 H172       -3.123000    0.273000   -2.703000 H         1 <1>         0.032512 
     29 H171       -2.315000    0.701000   -1.175000 H         1 <1>         0.032512 
     30 C17        -2.385000    0.928000   -2.239000 C.3       1 <1>        -0.008058 
     31 C18        -2.769000    2.358000   -2.437000 C.ar      1 <1>        -0.046177 
     32 H19        -3.151000    2.752000   -0.352000 H         1 <1>         0.062029 
     33 C19        -3.124000    3.165000   -1.361000 C.ar      1 <1>        -0.058541 
     34 H20        -2.454000    2.257000   -4.567000 H         1 <1>         0.062029 
     35 C20        -2.731000    2.891000   -3.725000 C.ar      1 <1>        -0.058541 
     36 H21        -3.730000    5.135000   -0.737000 H         1 <1>         0.061766 
     37 C21        -3.446000    4.502000   -1.578000 C.ar      1 <1>        -0.061501 
     38 H22        -3.009000    4.645000   -4.947000 H         1 <1>         0.061766 
     39 C22        -3.045000    4.230000   -3.940000 C.ar      1 <1>        -0.061501 
     40 H23        -3.660000    6.083000   -3.027000 H         1 <1>         0.061758 
     41 C23        -3.407000    5.036000   -2.863000 C.ar      1 <1>        -0.061742 
     42 H242        4.466000   -4.252000    0.117000 H         1 <1>         0.144978 
     43 H241        5.508000   -2.707000   -0.188000 H         1 <1>         0.144978 
     44 N24         4.699000   -3.211000    0.342000 N.am      1 <1>        -0.328034 
@<TRIPOS>BOND
     1    2    1 1    
     2    4    2 1    
     3    2    8 1    
     4    2    9 1    
     5    4    3 1    
     6   24    4 am   
     7    8    5 1    
     8    8    6 1    
     9    8    7 1    
    10    9   10 2    
    11    9   19 am   
    12   12   11 1    
    13   14   12 1    
    14   14   13 1    
    15   22   14 am   
    16   17   15 1    
    17   17   16 1    
    18   17   20 1    
    19   19   17 1    
    20   19   18 1    
    21   20   21 2    
    22   20   44 am   
    23   22   23 2    
    24   27   22 1    
    25   24   25 2    
    26   24   27 1    
    27   27   26 1    
    28   27   30 1    
    29   30   28 1    
    30   30   29 1    
    31   30   31 1    
    32   31   33 ar   
    33   31   35 ar   
    34   33   32 1    
    35   33   37 ar   
    36   35   34 1    
    37   35   39 ar   
    38   37   36 1    
    39   37   41 ar   
    40   39   38 1    
    41   39   41 ar   
    42   41   40 1    
    43   44   42 1    
    44   44   43 1    
@<TRIPOS>SUBSTRUCTURE
     1 ****       15 TEMP              0 ****  ****    0 ROOT 
@<TRIPOS>NORMAL
@<TRIPOS>ALT_TYPE
MMFF94_ALT_TYPE_SET 
MMFF94 1 HC 2 CR 3 HNCO 4 NC=O 5 HC 6 HC 7 HC 8 CR 9 C=ON 10 O=CN 11 HO \
12 -O- 13 HNCO 14 NC=O 15 HC 16 HC 17 CR 18 HNCO 19 NC=O \
20 C=ON 21 O=CN 22 C=ON 23 O=CN 24 C=ON 25 O=CN 26 HC \
27 CR 28 HC 29 HC 30 CR 31 CB 32 HC 33 CB 34 HC 35 CB \
36 HC 37 CB 38 HC 39 CB 40 HC 41 CB 42 HNCO 43 HNCO 44 NC=O \

@<TRIPOS>FF_PBC
FORCE_FIELD_SETUP_FEATURE Force Field Setup information
v1.0  0 0.000000 0.000000 0.000000 0.000000 0.000000 0.000000 NONE 0 0 0 0 0 0 0 0 0 0 0 0 0
