#	Name:			nhohbzmagna_min
#	Creating user name:	jeff
#	Creation time:		Thu Dec 19 11:49:51 2002

#	Modifying user name:	jeff
#	Modification time:	Thu Dec 19 11:49:51 2002

@<TRIPOS>MOLECULE
nhohbzmagna_min
   56    57     1     2     0
SMALL
GASTEIGER


@<TRIPOS>ATOM
      1 H1          1.714000    2.409000   -0.781000 H         1 <1>         0.059161 
      2 C1          1.131000    1.800000   -0.089000 C.3       1 <1>         0.096576 
      3 H2         -0.762000    0.648000   -0.326000 H         1 <1>         0.149458 
      4 N2          0.011000    1.213000   -0.846000 N.am      1 <1>        -0.303633 
      5 H33         1.452000    3.130000    1.577000 H         1 <1>         0.025218 
      6 H32         0.015000    3.511000    0.599000 H         1 <1>         0.025218 
      7 H31        -0.009000    2.123000    1.712000 H         1 <1>         0.025218 
      8 C3          0.610000    2.706000    1.031000 C.3       1 <1>        -0.038077 
      9 C4          2.052000    0.744000    0.455000 C.2       1 <1>         0.233477 
     10 O5          1.673000   -0.191000    1.160000 O.2       1 <1>        -0.273780 
     11 H6         -0.692000   -2.892000   -4.939000 H         1 <1>         0.241381 
     12 O6         -1.690000   -2.549000   -4.667000 O.3       1 <1>        -0.295167 
     13 H7         -2.874000   -1.023000   -3.808000 H         1 <1>         0.182214 
     14 N7         -1.856000   -1.322000   -4.060000 N.am      1 <1>        -0.196858 
     15 H82         3.992000   -0.500000    1.628000 H         1 <1>         0.055782 
     16 H81         4.627000   -0.827000   -0.002000 H         1 <1>         0.055782 
     17 C8          4.398000   -0.047000    0.724000 C.3       1 <1>         0.088479 
     18 H9          3.726000    1.668000   -0.522000 H         1 <1>         0.149242 
     19 N9          3.400000    0.874000    0.150000 N.am      1 <1>        -0.305189 
     20 C10         5.654000    0.698000    1.063000 C.2       1 <1>         0.234370 
     21 O11         6.196000    0.592000    2.162000 O.2       1 <1>        -0.273750 
     22 C12        -0.852000   -0.450000   -3.750000 C.2       1 <1>         0.247684 
     23 O13         0.163000   -0.805000   -4.308000 O.2       1 <1>        -0.272897 
     24 C14        -0.055000    1.381000   -2.225000 C.2       1 <1>         0.225931 
     25 O15         0.748000    2.052000   -2.858000 O.2       1 <1>        -0.274961 
     26 H16        -1.256000    1.484000   -3.863000 H         1 <1>         0.049315 
     27 C16        -1.162000    0.805000   -3.016000 C.3       1 <1>         0.117428 
     28 H172       -3.268000    0.324000   -2.920000 H         1 <1>         0.032512 
     29 H171       -2.519000    0.657000   -1.340000 H         1 <1>         0.032512 
     30 C17        -2.544000    0.944000   -2.391000 C.3       1 <1>        -0.008058 
     31 C18        -2.891000    2.392000   -2.530000 C.ar      1 <1>        -0.046177 
     32 H19        -3.278000    2.713000   -0.434000 H         1 <1>         0.062029 
     33 C19        -3.223000    3.166000   -1.424000 C.ar      1 <1>        -0.058541 
     34 H20        -2.558000    2.366000   -4.660000 H         1 <1>         0.062029 
     35 C20        -2.816000    2.976000   -3.794000 C.ar      1 <1>        -0.058541 
     36 H21        -3.754000    5.132000   -0.724000 H         1 <1>         0.061766 
     37 C21        -3.487000    4.524000   -1.588000 C.ar      1 <1>        -0.061501 
     38 H22        -3.002000    4.791000   -4.943000 H         1 <1>         0.061766 
     39 C22        -3.070000    4.334000   -3.955000 C.ar      1 <1>        -0.061501 
     40 H23        -3.618000    6.172000   -2.970000 H         1 <1>         0.061758 
     41 C23        -3.411000    5.109000   -2.849000 C.ar      1 <1>        -0.061742 
     42 H24         5.564000    1.538000   -0.906000 H         1 <1>         0.154851 
     43 N24         6.151000    1.535000    0.012000 N.am      1 <1>        -0.284207 
     44 C25         7.330000    2.380000    0.004000 C.ar      1 <1>         0.033551 
     45 H26         8.233000    1.590000    1.807000 H         1 <1>         0.063665 
     46 C26         8.323000    2.311000    0.994000 C.ar      1 <1>        -0.038512 
     47 H27        10.197000    3.121000    1.701000 H         1 <1>         0.063878 
     48 C27         9.419000    3.162000    0.938000 C.ar      1 <1>        -0.031995 
     49 C28         9.502000    4.072000   -0.118000 C.ar      1 <1>         0.117206 
     50 H29         8.623000    4.875000   -1.930000 H         1 <1>         0.063878 
     51 C29         8.529000    4.154000   -1.118000 C.ar      1 <1>        -0.031995 
     52 H30         6.667000    3.333000   -1.822000 H         1 <1>         0.063665 
     53 C30         7.438000    3.295000   -1.052000 C.ar      1 <1>        -0.038512 
     54 N31        10.662000    4.952000   -0.186000 N.pl3     1 <1>         0.092439 
     55 O32        10.786000    5.756000   -1.146000 O.2       1 <1>        -0.136925 
     56 O33        11.546000    4.895000    0.708000 O.2       1 <1>        -0.136925 
@<TRIPOS>BOND
     1    2    1 1    
     2    4    2 1    
     3    2    8 1    
     4    2    9 1    
     5    4    3 1    
     6   24    4 am   
     7    8    5 1    
     8    8    6 1    
     9    8    7 1    
    10    9   10 2    
    11    9   19 am   
    12   12   11 1    
    13   14   12 1    
    14   14   13 1    
    15   22   14 am   
    16   17   15 1    
    17   17   16 1    
    18   19   17 1    
    19   17   20 1    
    20   19   18 1    
    21   20   21 2    
    22   20   43 am   
    23   22   23 2    
    24   27   22 1    
    25   24   25 2    
    26   24   27 1    
    27   27   26 1    
    28   27   30 1    
    29   30   28 1    
    30   30   29 1    
    31   30   31 1    
    32   31   33 ar   
    33   31   35 ar   
    34   33   32 1    
    35   33   37 ar   
    36   35   34 1    
    37   35   39 ar   
    38   37   36 1    
    39   37   41 ar   
    40   39   38 1    
    41   39   41 ar   
    42   41   40 1    
    43   43   42 1    
    44   43   44 1    
    45   44   46 ar   
    46   44   53 ar   
    47   46   45 1    
    48   46   48 ar   
    49   48   47 1    
    50   48   49 ar   
    51   49   51 ar   
    52   49   54 1    
    53   51   50 1    
    54   51   53 ar   
    55   53   52 1    
    56   54   55 2    
    57   54   56 2    
@<TRIPOS>SUBSTRUCTURE
     1 ****       15 TEMP              0 ****  ****    0 ROOT 
@<TRIPOS>NORMAL
@<TRIPOS>ALT_TYPE
MMFF94_ALT_TYPE_SET 
MMFF94 1 HC 2 CR 3 HNCO 4 NC=O 5 HC 6 HC 7 HC 8 CR 9 C=ON 10 O=CN 11 HO \
12 -O- 13 HNCO 14 NC=O 15 HC 16 HC 17 CR 18 HNCO 19 NC=O \
20 C=ON 21 O=CN 22 C=ON 23 O=CN 24 C=ON 25 O=CN 26 HC \
27 CR 28 HC 29 HC 30 CR 31 CB 32 HC 33 CB 34 HC 35 CB \
36 HC 37 CB 38 HC 39 CB 40 HC 41 CB 42 HNCC 43 NC=O 44 CB \
45 HC 46 CB 47 HC 48 CB 49 CB 50 HC 51 CB 52 HC 53 CB \
54 NO2 55 O2N 56 O2N 
@<TRIPOS>FF_PBC
FORCE_FIELD_SETUP_FEATURE Force Field Setup information
v1.0  0 0.000000 0.000000 0.000000 0.000000 0.000000 0.000000 NONE 0 0 0 0 0 0 0 0 0 0 0 0 0
