#	Name:			ohbzmagnh2_min
#	Creating user name:	jeff
#	Creation time:		Thu Dec 19 11:49:52 2002

#	Modifying user name:	jeff
#	Modification time:	Thu Dec 19 11:49:52 2002

@<TRIPOS>MOLECULE
ohbzmagnh2_min
   41    41     1     2     0
SMALL
GASTEIGER


@<TRIPOS>ATOM
      1 H1          2.354000    1.207000   -1.568000 H         1 MAIN        0.059161 
      2 C1          1.700000    1.250000   -0.697000 C.3       1 MAIN        0.096575 
      3 H2         -0.345000    0.361000   -0.439000 H         1 MAIN        0.149457 
      4 N2          0.344000    0.830000   -1.142000 N.am      1 MAIN       -0.303729 
      5 H33         2.666000    2.977000    0.160000 H         1 MAIN        0.025218 
      6 H32         1.326000    3.359000   -0.947000 H         1 MAIN        0.025218 
      7 H31         0.982000    2.741000    0.686000 H         1 MAIN        0.025218 
      8 C3          1.666000    2.685000   -0.161000 C.3       1 MAIN       -0.038077 
      9 C4          2.265000    0.319000    0.346000 C.2       1 MAIN        0.233477 
     10 O5          1.545000   -0.208000    1.182000 O.2       1 MAIN       -0.273780 
     11 O6         -1.199000   -1.853000   -1.959000 O.co2     1 MAIN       -0.549031 
     12 H72         5.317000   -0.658000    1.446000 H         1 MAIN        0.055765 
     13 H71         3.864000   -0.425000    2.447000 H         1 MAIN        0.055765 
     14 C7          4.234000   -0.772000    1.482000 C.3       1 MAIN        0.087945 
     15 H8          4.286000    0.503000   -0.343000 H         1 MAIN        0.149242 
     16 N8          3.633000    0.068000    0.414000 N.am      1 MAIN       -0.305207 
     17 C9          3.898000   -2.240000    1.336000 C.2       1 MAIN        0.227661 
     18 O10         2.995000   -2.780000    1.976000 O.2       1 MAIN       -0.274312 
     19 C11        -1.059000   -1.136000   -2.943000 C.2       1 MAIN        0.053892 
     20 O12        -0.635000   -1.650000   -4.112000 O.co2     1 MAIN       -0.549031 
     21 C13        -0.038000    1.041000   -2.469000 C.2       1 MAIN        0.222506 
     22 O14         0.638000    1.787000   -3.175000 O.2       1 MAIN       -0.275086 
     23 H15        -1.398000    0.630000   -4.037000 H         1 MAIN        0.045797 
     24 C15        -1.257000    0.348000   -2.994000 C.3       1 MAIN        0.078782 
     25 H162       -3.368000    0.194000   -2.608000 H         1 MAIN        0.032401 
     26 H161       -2.394000    0.674000   -1.197000 H         1 MAIN        0.032401 
     27 C16        -2.526000    0.800000   -2.272000 C.3       1 MAIN       -0.011381 
     28 C17        -2.804000    2.242000   -2.570000 C.ar      1 MAIN       -0.046290 
     29 H18        -3.288000    2.731000   -0.528000 H         1 MAIN        0.062029 
     30 C18        -3.186000    3.105000   -1.546000 C.ar      1 MAIN       -0.058542 
     31 H19        -2.382000    2.044000   -4.676000 H         1 MAIN        0.062029 
     32 C19        -2.674000    2.721000   -3.874000 C.ar      1 MAIN       -0.058542 
     33 H20        -3.740000    5.121000   -1.024000 H         1 MAIN        0.061766 
     34 C20        -3.437000    4.446000   -1.824000 C.ar      1 MAIN       -0.061501 
     35 H21        -2.810000    4.439000   -5.169000 H         1 MAIN        0.061766 
     36 C21        -2.918000    4.063000   -4.152000 C.ar      1 MAIN       -0.061501 
     37 H22        -3.494000    5.975000   -3.341000 H         1 MAIN        0.061758 
     38 C22        -3.301000    4.924000   -3.125000 C.ar      1 MAIN       -0.061742 
     39 H232        4.422000   -4.075000    0.344000 H         1 MAIN        0.144978 
     40 H231        5.462000   -2.564000   -0.104000 H         1 MAIN        0.144978 
     41 N23         4.648000   -3.015000    0.463000 N.am      1 MAIN       -0.328034 
@<TRIPOS>BOND
     1    4    2 1    
     2    2    8 1    
     3    2    9 1    
     4   21    4 am   
     5    9   10 2    
     6    9   16 am   
     7   19   11 ar   
     8   16   14 1    
     9   14   17 1    
    10   17   41 am   
    11   17   18 2    
    12   24   19 1    
    13   19   20 ar   
    14   21   24 1    
    15   21   22 2    
    16   24   27 1    
    17   27   28 1    
    18   28   30 ar   
    19   28   32 ar   
    20   30   34 ar   
    21   32   36 ar   
    22   34   38 ar   
    23   36   38 ar   
    24   41   39 1    
    25   41   40 1    
    26   38   37 1    
    27   36   35 1    
    28   34   33 1    
    29   32   31 1    
    30   30   29 1    
    31   27   25 1    
    32   27   26 1    
    33   24   23 1    
    34   16   15 1    
    35   14   12 1    
    36   14   13 1    
    37    8    5 1    
    38    8    6 1    
    39    8    7 1    
    40    4    3 1    
    41    2    1 1    
@<TRIPOS>SUBSTRUCTURE
     1 MAIN        1 PERM              0 ****  ****    0 ROOT 
@<TRIPOS>NORMAL
@<TRIPOS>ALT_TYPE
MMFF94_ALT_TYPE_SET 
MMFF94 1 HC 2 CR 3 HNCO 4 NC=O 5 HC 6 HC 7 HC 8 CR 9 C=ON 10 O=CN 11 O2CM \
12 HC 13 HC 14 CR 15 HNCO 16 NC=O 17 C=ON 18 O=CN 19 CO2M \
20 O2CM 21 C=ON 22 O=CN 23 HC 24 CR 25 HC 26 HC 27 CR \
28 CB 29 HC 30 CB 31 HC 32 CB 33 HC 34 CB 35 HC 36 CB \
37 HC 38 CB 39 HNCO 40 HNCO 41 NC=O 
@<TRIPOS>FF_PBC
FORCE_FIELD_SETUP_FEATURE Force Field Setup information
v1.0  0 0.000000 0.000000 0.000000 0.000000 0.000000 0.000000 NONE 0 0 0 0 0 0 0 0 0 0 0 0 0
