#	Name:			p_ile_aoh_min
#	Creating user name:	jeff
#	Creation time:		Thu Dec 19 11:49:52 2002

#	Modifying user name:	jeff
#	Modification time:	Thu Dec 19 11:49:52 2002

@<TRIPOS>MOLECULE
p_ile_aoh_min
   34    33     1     2     0
SMALL
GASTEIGER


@<TRIPOS>ATOM
      1 H1         -3.761000    1.659000   -3.752000 H         1 <1>         0.032058 
      2 C1         -3.029000    1.891000   -2.978000 C.3       1 <1>        -0.017271 
      3 O2         -0.026644   -1.957082   -2.021662 O.3       1 <1>        -0.803518 
      4 P3         -0.703000   -1.513000   -3.402000 P.3       1 <1>        -0.006189 
      5 O4          0.197000   -0.810000   -4.371000 O.co2     1 <1>        -0.552739 
      6 O5         -1.239000   -2.637000   -4.249000 O.co2     1 <1>        -0.552739 
      7 H6         -2.835000   -0.721000   -3.625000 H         1 <1>         0.145635 
      8 N6         -1.974000   -0.422000   -3.028000 N.am      1 <1>        -0.338492 
      9 H7         -1.596000    1.146000   -4.323000 H         1 <1>         0.059583 
     10 C7         -1.773000    1.030000   -3.254000 C.3       1 <1>         0.099119 
     11 C8         -0.550000    1.533000   -2.537000 C.2       1 <1>         0.233973 
     12 O9          0.339000    2.129000   -3.147000 O.2       1 <1>        -0.273757 
     13 H143       -4.567000    2.182000   -1.493000 H         1 <1>         0.023311 
     14 H142       -3.996000    0.502000   -1.640000 H         1 <1>         0.023311 
     15 H141       -2.982000    1.720000   -0.828000 H         1 <1>         0.023311 
     16 C14        -3.692000    1.549000   -1.638000 C.3       1 <1>        -0.060284 
     17 H17         1.236000    2.579000   -1.107000 H         1 <1>         0.055714 
     18 C17         0.737000    1.876000   -0.441000 C.3       1 <1>         0.059838 
     19 H18        -1.183000    0.756000   -0.628000 H         1 <1>         0.149370 
     20 N18        -0.424000    1.325000   -1.165000 N.am      1 <1>        -0.306080 
     21 H193        1.167000    3.043000    1.321000 H         1 <1>         0.025109 
     22 H192       -0.358000    3.471000    0.509000 H         1 <1>         0.025109 
     23 H191       -0.252000    1.978000    1.473000 H         1 <1>         0.025109 
     24 C19         0.291000    2.648000    0.805000 C.3       1 <1>        -0.041338 
     25 C20         1.742000    0.809000   -0.100000 C.2       1 <1>         0.061677 
     26 O21         1.429000   -0.121000    0.707000 O.co2     1 <1>        -0.547908 
     27 O22         2.892000    0.902000   -0.627000 O.co2     1 <1>        -0.547908 
     28 H272       -1.783000    3.572000   -2.466000 H         1 <1>         0.026590 
     29 H271       -2.481000    3.646000   -4.102000 H         1 <1>         0.026590 
     30 C27        -2.678000    3.390000   -3.061000 C.3       1 <1>        -0.051177 
     31 H283       -3.506000    5.331000   -2.620000 H         1 <1>         0.022987 
     32 H282       -4.706000    4.120000   -3.131000 H         1 <1>         0.022987 
     33 H281       -4.008000    4.046000   -1.495000 H         1 <1>         0.022987 
     34 C28        -3.806000    4.287000   -2.539000 C.3       1 <1>        -0.064964 
@<TRIPOS>BOND
     1    2    1 1    
     2   10    2 1    
     3    2   16 1    
     4    2   30 1    
     5    4    3 1    
     6    4    5 ar   
     7    4    6 ar   
     8    8    4 1    
     9    8    7 1    
    10   10    8 1    
    11   10    9 1    
    12   11   10 1    
    13   11   12 2    
    14   20   11 am   
    15   16   13 1    
    16   16   14 1    
    17   16   15 1    
    18   18   17 1    
    19   18   20 1    
    20   18   24 1    
    21   18   25 1    
    22   20   19 1    
    23   24   21 1    
    24   24   22 1    
    25   24   23 1    
    26   25   26 ar   
    27   25   27 ar   
    28   30   28 1    
    29   30   29 1    
    30   30   34 1    
    31   34   31 1    
    32   34   32 1    
    33   34   33 1    
@<TRIPOS>SUBSTRUCTURE
     1 ****       17 TEMP              0 ****  ****    0 ROOT 
@<TRIPOS>NORMAL
@<TRIPOS>ALT_TYPE
MMFF94_ALT_TYPE_SET 
MMFF94 1 HC 2 CR 3 O3P 4 PO3 5 O3P 6 O3P 7 HNPO 8 NPO2 9 HC 10 CR 11 C=ON \
12 O=CN 13 HC 14 HC 15 HC 16 CR 17 HC 18 CR 19 HNCO \
20 NC=O 21 HC 22 HC 23 HC 24 CR 25 CO2M 26 O2CM 27 O2CM \
28 HC 29 HC 30 CR 31 HC 32 HC 33 HC 34 CR 
@<TRIPOS>FF_PBC
FORCE_FIELD_SETUP_FEATURE Force Field Setup information
v1.0  0 0.000000 0.000000 0.000000 0.000000 0.000000 0.000000 NONE 0 0 0 0 0 0 0 0 0 0 0 0 0
