#	Name:			p_ophe_ome_leunh2_min
#	Creating user name:	jeff
#	Creation time:		Thu Dec 19 11:49:52 2002

#	Modifying user name:	jeff
#	Modification time:	Thu Dec 19 11:49:53 2002

@<TRIPOS>MOLECULE
p_ophe_ome_leunh2_min
   41    41     1     2     0
SMALL
GASTEIGER


@<TRIPOS>ATOM
      1 O2         -2.033000   -3.517000   -2.831000 O.3       1 <1>        -0.256266 
      2 P3         -1.005000   -2.207000   -2.748000 P.3       1 <1>         0.427817 
      3 O4         -0.243000   -2.244000   -1.268000 O.3       1 <1>        -0.296807 
      4 O5          0.007000   -2.230000   -3.885000 O.2       1 <1>        -0.236240 
      5 H6         -2.870000   -1.041000   -3.361000 H         1 <1>         0.152259 
      6 N6         -1.981000   -0.776000   -2.788000 N.am      1 <1>        -0.270308 
      7 H7         -1.281000    0.386000   -4.387000 H         1 <1>         0.059507 
      8 C7         -1.525000    0.529000   -3.334000 C.3       1 <1>         0.102225 
      9 C8         -0.292000    1.037000   -2.645000 C.2       1 <1>         0.230899 
     10 O9          0.523000    1.760000   -3.223000 O.2       1 <1>        -0.273996 
     11 H102       -3.574000    1.145000   -3.567000 H         1 <1>         0.029028 
     12 H101       -2.789000    1.743000   -2.085000 H         1 <1>         0.029028 
     13 C10        -2.655000    1.558000   -3.151000 C.3       1 <1>        -0.023567 
     14 H11        -1.310000    3.145000   -3.670000 H         1 <1>         0.029618 
     15 C11        -2.355000    2.892000   -3.847000 C.3       1 <1>        -0.044591 
     16 H123       -2.346000    3.738000   -5.831000 H         1 <1>         0.023234 
     17 H122       -1.899000    2.016000   -5.764000 H         1 <1>         0.023234 
     18 H121       -3.600000    2.502000   -5.565000 H         1 <1>         0.023234 
     19 C12        -2.565000    2.779000   -5.361000 C.3       1 <1>        -0.062595 
     20 H133       -3.017000    4.940000   -3.769000 H         1 <1>         0.023234 
     21 H132       -4.287000    3.743000   -3.420000 H         1 <1>         0.023234 
     22 H131       -3.040000    4.100000   -2.201000 H         1 <1>         0.023234 
     23 C13        -3.238000    3.998000   -3.268000 C.3       1 <1>        -0.062595 
     24 H142        0.732000    1.102000   -0.748000 H         1 <1>         0.144987 
     25 H141       -0.916000    0.180000   -0.767000 H         1 <1>         0.144987 
     26 N14        -0.148000    0.752000   -1.288000 N.am      1 <1>        -0.327797 
     27 C27        -1.520000   -4.763000   -3.105000 C.ar      1 <1>         0.087403 
     28 H28         0.270000   -4.508000   -1.918000 H         1 <1>         0.064341 
     29 C28        -0.294000   -5.170000   -2.575000 C.ar      1 <1>        -0.031119 
     30 H29         1.149000   -6.764000   -2.480000 H         1 <1>         0.061837 
     31 C29         0.198000   -6.431000   -2.897000 C.ar      1 <1>        -0.059307 
     32 H30        -0.119000   -8.253000   -4.007000 H         1 <1>         0.061760 
     33 C30        -0.517000   -7.272000   -3.749000 C.ar      1 <1>        -0.061601 
     34 H31        -2.298000   -7.513000   -4.939000 H         1 <1>         0.061837 
     35 C31        -1.741000   -6.857000   -4.270000 C.ar      1 <1>        -0.059307 
     36 H32        -3.221000   -5.288000   -4.328000 H         1 <1>         0.064341 
     37 C32        -2.254000   -5.606000   -3.939000 C.ar      1 <1>        -0.031119 
     38 H333       -0.216000   -2.757000    0.732000 H         1 <1>         0.052908 
     39 H332       -1.810000   -2.312000    0.075000 H         1 <1>         0.052908 
     40 H331       -1.084000   -3.884000   -0.338000 H         1 <1>         0.052908 
     41 C33        -0.876000   -2.834000   -0.133000 C.3       1 <1>         0.047211 
@<TRIPOS>BOND
     1    1    2 1    
     2    1   27 1    
     3    2    3 1    
     4    2    4 2    
     5    2    6 1    
     6    3   41 1    
     7    6    5 1    
     8    6    8 1    
     9    8    7 1    
    10    8    9 1    
    11    8   13 1    
    12    9   10 2    
    13    9   26 am   
    14   13   11 1    
    15   13   12 1    
    16   13   15 1    
    17   15   14 1    
    18   15   19 1    
    19   15   23 1    
    20   19   16 1    
    21   19   17 1    
    22   19   18 1    
    23   23   20 1    
    24   23   21 1    
    25   23   22 1    
    26   26   24 1    
    27   26   25 1    
    28   27   29 ar   
    29   27   37 ar   
    30   29   28 1    
    31   29   31 ar   
    32   31   30 1    
    33   31   33 ar   
    34   33   32 1    
    35   33   35 ar   
    36   35   34 1    
    37   35   37 ar   
    38   37   36 1    
    39   41   38 1    
    40   41   39 1    
    41   41   40 1    
@<TRIPOS>SUBSTRUCTURE
     1 ****        1 TEMP              0 ****  ****    0 ROOT 
@<TRIPOS>NORMAL
@<TRIPOS>ALT_TYPE
MMFF94_ALT_TYPE_SET 
MMFF94 1 OPO2 2 PO3 3 OPO2 4 OP 5 HNR 6 NR 7 HC 8 CR 9 C=ON 10 O=CN \
11 HC 12 HC 13 CR 14 HC 15 CR 16 HC 17 HC 18 HC 19 CR \
20 HC 21 HC 22 HC 23 CR 24 HNCO 25 HNCO 26 NC=O 27 CB \
28 HC 29 CB 30 HC 31 CB 32 HC 33 CB 34 HC 35 CB 36 HC \
37 CB 38 HC 39 HC 40 HC 41 CR 
@<TRIPOS>FF_PBC
FORCE_FIELD_SETUP_FEATURE Force Field Setup information
v1.0  0 0.000000 0.000000 0.000000 0.000000 0.000000 0.000000 NONE 0 0 0 0 0 0 0 0 0 0 0 0 0
