#	Name:			paaoh_min
#	Creating user name:	jeff
#	Creation time:		Thu Dec 19 11:49:52 2002

#	Modifying user name:	jeff
#	Modification time:	Thu Dec 19 11:49:52 2002

@<TRIPOS>MOLECULE
paaoh_min
   25    24     1     2     1
SMALL
GASTEIGER


@<TRIPOS>ATOM
      1 O2         -0.107409   -1.894422   -2.012820 O.co2     1 <1>        -0.556119 
      2 P3         -0.828409   -1.418422   -3.316820 P.3       1 <1>        -0.017340 
      3 O4          0.017591   -0.666422   -4.301820 O.co2     1 <1>        -0.556119 
      4 O5         -1.416233   -2.593005   -4.230503 O.3       1 <1>        -0.805811 
      5 H6         -2.817669   -0.835850   -3.444897 H         1 <1>         0.127600 
      6 N6         -1.938972   -0.511911   -2.906980 N.3       1 <1>        -0.281870 
      7 H7         -1.790000    1.118000   -4.186000 H         1 <1>         0.055625 
      8 C7         -1.833000    0.940000   -3.111000 C.3       1 <1>         0.085214 
      9 C8         -0.575000    1.496000   -2.501000 C.2       1 <1>         0.230538 
     10 O9          0.288000    2.096000   -3.150000 O.2       1 <1>        -0.274086 
     11 H123       -2.964000    2.728000   -2.693000 H         1 <1>         0.024944 
     12 H122       -3.959000    1.292000   -3.030000 H         1 <1>         0.024944 
     13 H121       -3.128000    1.451000   -1.464000 H         1 <1>         0.024944 
     14 C12        -3.060000    1.654000   -2.533000 C.3       1 <1>        -0.040890 
     15 H17         1.265000    2.554000   -1.125000 H         1 <1>         0.055714 
     16 C17         0.771000    1.868000   -0.437000 C.3       1 <1>         0.059829 
     17 H18        -1.153000    0.753000   -0.565000 H         1 <1>         0.149361 
     18 N18        -0.408000    1.312000   -1.131000 N.am      1 <1>        -0.306326 
     19 H193        1.236000    3.061000    1.297000 H         1 <1>         0.025109 
     20 H192       -0.302000    3.483000    0.506000 H         1 <1>         0.025109 
     21 H191       -0.184000    2.005000    1.491000 H         1 <1>         0.025109 
     22 C19         0.350000    2.662000    0.804000 C.3       1 <1>        -0.041338 
     23 C20         1.767000    0.796000   -0.089000 C.2       1 <1>         0.061677 
     24 O21         1.443000   -0.129000    0.719000 O.co2     1 <1>        -0.547908 
     25 O22         2.922000    0.882000   -0.606000 O.co2     1 <1>        -0.547908 
@<TRIPOS>BOND
     1    2    1 ar   
     2    2    3 ar   
     3    2    4 1    
     4    6    2 1    
     5    6    5 1    
     6    8    6 1    
     7    8    7 1    
     8    9    8 1    
     9    8   14 1    
    10    9   10 2    
    11   18    9 am   
    12   14   11 1    
    13   14   12 1    
    14   14   13 1    
    15   16   15 1    
    16   16   18 1    
    17   16   22 1    
    18   16   23 1    
    19   18   17 1    
    20   22   19 1    
    21   22   20 1    
    22   22   21 1    
    23   23   24 ar   
    24   23   25 ar   
@<TRIPOS>SUBSTRUCTURE
     1 ****       15 TEMP              0 ****  ****    0 ROOT 
@<TRIPOS>SET
LAB$A_TYPE      STATIC     ATOMS    LABELGROUP SYSTEM 
25 1 2 3 4 5 6 7 8 9 10 11 12 13 14 15 16 17 18 19 \
 20 21 22 23 24 25
@<TRIPOS>NORMAL
@<TRIPOS>ALT_TYPE
MMFF94_ALT_TYPE_SET 
MMFF94 1 O3P 2 PO3 3 O3P 4 O3P 5 HNPO 6 NPO2 7 HC 8 CR 9 C=ON 10 O=CN \
11 HC 12 HC 13 HC 14 CR 15 HC 16 CR 17 HNCO 18 NC=O \
19 HC 20 HC 21 HC 22 CR 23 CO2M 24 O2CM 25 O2CM 
@<TRIPOS>FF_PBC
FORCE_FIELD_SETUP_FEATURE Force Field Setup information
v1.0  0 0.000000 0.000000 0.000000 0.000000 0.000000 0.000000 NONE 0 0 0 0 1 0 0 0 0 0 0 0 0
