#	Name:			phosphoramidon_min
#	Creating user name:	jeff
#	Creation time:		Thu Dec 19 11:49:52 2002

#	Modifying user name:	jeff
#	Modification time:	Thu Dec 19 11:49:52 2002

@<TRIPOS>MOLECULE
phosphoramidon_min
   69    71     1     2     0
SMALL
GASTEIGER


@<TRIPOS>ATOM
      1 H2          1.033000   -2.021000   -1.714000 H         1 MAIN        0.094115 
      2 C2          0.343000   -2.827000   -1.462000 C.3       1 MAIN        0.194453 
      3 O3         -0.602000   -2.978000   -2.517000 O.3       1 MAIN       -0.294663 
      4 H4         -0.935000   -1.537000   -0.296000 H         1 MAIN        0.067105 
      5 C4         -0.377000   -2.463000   -0.159000 C.3       1 MAIN        0.134471 
      6 H5          0.042000   -2.008000    1.810000 H         1 MAIN        0.210111 
      7 O5          0.568000   -2.265000    0.890000 O.3       1 MAIN       -0.384094 
      8 H6         -2.066000   -3.728000   -0.593000 H         1 MAIN        0.064757 
      9 C6         -1.338000   -3.597000    0.207000 C.3       1 MAIN        0.113982 
     10 H7         -2.764000   -4.109000    1.610000 H         1 MAIN        0.210005 
     11 O7         -2.091000   -3.283000    1.379000 O.3       1 MAIN       -0.386402 
     12 H8          0.146000   -4.798000    1.196000 H         1 MAIN        0.064584 
     13 C8         -0.543000   -4.902000    0.357000 C.3       1 MAIN        0.109478 
     14 H9         -0.828000   -6.910000    0.746000 H         1 MAIN        0.210002 
     15 O9         -1.413000   -5.996000    0.644000 O.3       1 MAIN       -0.386579 
     16 H10        -0.429000   -5.341000   -1.729000 H         1 MAIN        0.062075 
     17 C10         0.284000   -5.171000   -0.922000 C.3       1 MAIN        0.087316 
     18 O11         1.097000   -4.040000   -1.300000 O.3       1 MAIN       -0.342739 
     19 H123        1.729000   -6.590000   -1.663000 H         1 MAIN        0.025536 
     20 H122        1.840000   -6.273000    0.085000 H         1 MAIN        0.025536 
     21 H121        0.521000   -7.283000   -0.554000 H         1 MAIN        0.025536 
     22 C12         1.157000   -6.419000   -0.751000 C.3       1 MAIN       -0.036060 
     23 P13        -1.040000   -1.746000   -3.544000 P.3       1 MAIN        0.212830 
     24 O14         0.100000   -1.088000   -4.218000 O.co2     1 MAIN       -0.517186 
     25 O15        -1.845000   -2.406000   -4.788000 O.co2     1 MAIN       -0.517186 
     26 H16        -3.060000   -0.833000   -2.944000 H         1 MAIN        0.148656 
     27 N16        -2.022000   -0.592000   -2.717000 N.am      1 MAIN       -0.306430 
     28 H17        -1.866000    0.939000   -4.100000 H         1 MAIN        0.059396 
     29 C17        -1.835000    0.851000   -3.014000 C.3       1 MAIN        0.099070 
     30 C18        -0.493000    1.365000   -2.554000 C.2       1 MAIN        0.233812 
     31 O19         0.292000    1.972000   -3.286000 O.2       1 MAIN       -0.273766 
     32 H202       -3.927000    1.292000   -2.739000 H         1 MAIN        0.029026 
     33 H201       -2.899000    1.703000   -1.345000 H         1 MAIN        0.029026 
     34 C20        -2.967000    1.707000   -2.433000 C.3       1 MAIN       -0.023680 
     35 H21        -1.839000    3.498000   -2.739000 H         1 MAIN        0.029618 
     36 C21        -2.852000    3.153000   -2.944000 C.3       1 MAIN       -0.044593 
     37 H223       -2.995000    4.256000   -4.794000 H         1 MAIN        0.023234 
     38 H222       -2.336000    2.612000   -4.969000 H         1 MAIN        0.023234 
     39 H221       -4.078000    2.847000   -4.694000 H         1 MAIN        0.023234 
     40 C22        -3.082000    3.222000   -4.460000 C.3       1 MAIN       -0.062595 
     41 H233       -3.725000    5.089000   -2.589000 H         1 MAIN        0.023234 
     42 H232       -4.847000    3.725000   -2.369000 H         1 MAIN        0.023234 
     43 H231       -3.603000    4.060000   -1.141000 H         1 MAIN        0.023234 
     44 C23        -3.827000    4.073000   -2.208000 C.3       1 MAIN       -0.062595 
     45 H24        -0.737000    0.727000   -0.476000 H         1 MAIN        0.149391 
     46 N24        -0.103000    1.197000   -1.228000 N.am      1 MAIN       -0.305503 
     47 H25         1.777000    1.657000   -1.886000 H         1 MAIN        0.056315 
     48 C25         1.257000    1.718000   -0.930000 C.3       1 MAIN        0.066652 
     49 C26         2.054000    0.857000    0.006000 C.2       1 MAIN        0.062261 
     50 O27         1.580000    0.159000    0.894000 O.co2     1 MAIN       -0.547888 
     51 H282        2.309000    3.567000   -0.599000 H         1 MAIN        0.033536 
     52 H281        0.662000    3.763000   -1.245000 H         1 MAIN        0.033536 
     53 C28         1.281000    3.209000   -0.539000 C.3       1 MAIN       -0.002123 
     54 C29         0.766000    3.463000    0.850000 C.ar      1 MAIN       -0.022592 
     55 H30        -1.187000    2.502000    0.826000 H         1 MAIN        0.078413 
     56 C30        -0.426000    3.067000    1.365000 C.ar      1 MAIN       -0.002358 
     57 C31         1.459000    4.189000    1.878000 C.ar      1 MAIN        0.000534 
     58 H32        -1.370000    3.324000    3.385000 H         1 MAIN        0.151632 
     59 N32        -0.531000    3.502000    2.712000 N.am      1 MAIN       -0.319787 
     60 C33         0.659000    4.213000    3.019000 C.ar      1 MAIN        0.038452 
     61 H34         3.359000    4.830000    1.029000 H         1 MAIN        0.062411 
     62 C34         2.711000    4.833000    1.905000 C.ar      1 MAIN       -0.052522 
     63 H35         0.385000    4.857000    5.085000 H         1 MAIN        0.063622 
     64 C35         1.034000    4.854000    4.209000 C.ar      1 MAIN       -0.039969 
     65 H36         4.066000    5.975000    3.110000 H         1 MAIN        0.061777 
     66 C36         3.100000    5.472000    3.073000 C.ar      1 MAIN       -0.061079 
     67 H37         2.604000    5.995000    5.118000 H         1 MAIN        0.061816 
     68 C37         2.268000    5.483000    4.217000 C.ar      1 MAIN       -0.059972 
     69 O38         3.392000    0.888000   -0.166000 O.co2     1 MAIN       -0.547888 
@<TRIPOS>BOND
     1    2    3 1    
     2    2    5 1    
     3    2   18 1    
     4    3   23 1    
     5    5    7 1    
     6    5    9 1    
     7    9   11 1    
     8    9   13 1    
     9   13   15 1    
    10   13   17 1    
    11   17   18 1    
    12   17   22 1    
    13   23   24 ar   
    14   23   25 ar   
    15   23   27 1    
    16   27   29 1    
    17   29   30 1    
    18   29   34 1    
    19   30   31 2    
    20   30   46 am   
    21   34   36 1    
    22   36   40 1    
    23   36   44 1    
    24   46   48 1    
    25   48   49 1    
    26   48   53 1    
    27   49   50 ar   
    28   49   69 ar   
    29   53   54 1    
    30   54   56 ar   
    31   54   57 ar   
    32   56   59 1    
    33   57   60 ar   
    34   57   62 ar   
    35   59   60 1    
    36   60   64 ar   
    37   62   66 ar   
    38   64   68 ar   
    39   66   68 ar   
    40   68   67 1    
    41   66   65 1    
    42   64   63 1    
    43   62   61 1    
    44   59   58 1    
    45   56   55 1    
    46   53   51 1    
    47   53   52 1    
    48   48   47 1    
    49   46   45 1    
    50   44   41 1    
    51   44   42 1    
    52   44   43 1    
    53   40   37 1    
    54   40   38 1    
    55   40   39 1    
    56   36   35 1    
    57   34   32 1    
    58   34   33 1    
    59   29   28 1    
    60   27   26 1    
    61   22   19 1    
    62   22   20 1    
    63   22   21 1    
    64   17   16 1    
    65   15   14 1    
    66   13   12 1    
    67   11   10 1    
    68    9    8 1    
    69    7    6 1    
    70    5    4 1    
    71    2    1 1    
@<TRIPOS>SUBSTRUCTURE
     1 MAIN        1 PERM              0 ****  ****    0 ROOT 
@<TRIPOS>NORMAL
@<TRIPOS>ALT_TYPE
MMFF94_ALT_TYPE_SET 
MMFF94 1 HC 2 CR 3 OPO2 4 HC 5 CR 6 HOR 7 OR 8 HC 9 CR 10 HOR 11 OR \
12 HC 13 CR 14 HOR 15 OR 16 HC 17 CR 18 OR 19 HC 20 HC \
21 HC 22 CR 23 PO3 24 O2P 25 O2P 26 HNPO 27 NPO3 28 HC \
29 CR 30 C=ON 31 O=CN 32 HC 33 HC 34 CR 35 HC 36 CR 37 HC \
38 HC 39 HC 40 CR 41 HC 42 HC 43 HC 44 CR 45 HNCO 46 NC=O \
47 HC 48 CR 49 CO2M 50 O2CM 51 HC 52 HC 53 CR 54 C5B \
55 HC 56 C5A 57 CB 58 HNCC 59 NPYL 60 CB 61 HC 62 CB \
63 HC 64 CB 65 HC 66 CB 67 HC 68 CB 69 O2CM 
@<TRIPOS>FF_PBC
FORCE_FIELD_SETUP_FEATURE Force Field Setup information
v1.0  0 0.000000 0.000000 0.000000 0.000000 0.000000 0.000000 NONE 0 0 0 0 0 0 0 0 0 0 0 0 0
