#	Name:			pleunh2_min
#	Creating user name:	jeff
#	Creation time:		Thu Dec 19 11:49:52 2002

#	Modifying user name:	jeff
#	Modification time:	Thu Dec 19 11:49:52 2002

@<TRIPOS>MOLECULE
pleunh2_min
   26    25     1     2     0
SMALL
GASTEIGER


@<TRIPOS>ATOM
      1 O2         -0.004000   -1.970000   -2.044000 O.3       1 <1>        -0.803518 
      2 P3         -0.698098   -1.536572   -3.418907 P.3       1 <1>        -0.006195 
      3 O4          0.177902   -0.817572   -4.397907 O.co2     1 <1>        -0.552739 
      4 O5         -1.226098   -2.665572   -4.259907 O.co2     1 <1>        -0.552739 
      5 H6         -2.838098   -0.764572   -3.624907 H         1 <1>         0.145628 
      6 N6         -1.978098   -0.466572   -3.024907 N.am      1 <1>        -0.338694 
      7 H7         -1.707098    1.160428   -4.300907 H         1 <1>         0.059312 
      8 C7         -1.794098    0.989428   -3.227907 C.3       1 <1>         0.096546 
      9 C8         -0.535098    1.467428   -2.563907 C.2       1 <1>         0.230699 
     10 O9          0.327902    2.093428   -3.177907 O.2       1 <1>        -0.273999 
     11 H102       -3.910098    1.399428   -3.190907 H         1 <1>         0.029025 
     12 H101       -3.078098    1.684428   -1.642907 H         1 <1>         0.029025 
     13 C10        -3.004098    1.788428   -2.724907 C.3       1 <1>        -0.023764 
     14 H11        -1.856098    3.592428   -2.764907 H         1 <1>         0.029618 
     15 C11        -2.849098    3.274428   -3.081907 C.3       1 <1>        -0.044594 
     16 H123       -2.840098    4.553428   -4.820907 H         1 <1>         0.023234 
     17 H122       -2.167098    2.929428   -5.099907 H         1 <1>         0.023234 
     18 H121       -3.926098    3.148428   -4.947907 H         1 <1>         0.023234 
     19 C12        -2.953098    3.492428   -4.597907 C.3       1 <1>        -0.062595 
     20 H133       -3.751098    5.172428   -2.607907 H         1 <1>         0.023234 
     21 H132       -4.885098    3.800428   -2.612907 H         1 <1>         0.023234 
     22 H131       -3.743098    4.005428   -1.262907 H         1 <1>         0.023234 
     23 C13        -3.881098    4.124428   -2.337907 C.3       1 <1>        -0.062595 
     24 H142        0.531902    1.475428   -0.690907 H         1 <1>         0.144987 
     25 H141       -1.130098    0.580428   -0.691907 H         1 <1>         0.144987 
     26 N14        -0.366098    1.151428   -1.217907 N.am      1 <1>        -0.327799 
@<TRIPOS>BOND
     1    1    2 1    
     2    2    3 ar   
     3    2    4 ar   
     4    2    6 1    
     5    6    5 1    
     6    6    8 1    
     7    8    7 1    
     8    8    9 1    
     9    8   13 1    
    10    9   10 2    
    11    9   26 am   
    12   13   11 1    
    13   13   12 1    
    14   13   15 1    
    15   15   14 1    
    16   15   19 1    
    17   15   23 1    
    18   19   16 1    
    19   19   17 1    
    20   19   18 1    
    21   23   20 1    
    22   23   21 1    
    23   23   22 1    
    24   26   24 1    
    25   26   25 1    
@<TRIPOS>SUBSTRUCTURE
     1 ****        1 TEMP              0 ****  ****    0 ROOT 
@<TRIPOS>NORMAL
@<TRIPOS>ALT_TYPE
MMFF94_ALT_TYPE_SET 
MMFF94 1 O3P 2 PO3 3 O3P 4 O3P 5 HNPO 6 NPO2 7 HC 8 CR 9 C=ON 10 O=CN \
11 HC 12 HC 13 CR 14 HC 15 CR 16 HC 17 HC 18 HC 19 CR \
20 HC 21 HC 22 HC 23 CR 24 HNCO 25 HNCO 26 NC=O 
@<TRIPOS>FF_PBC
FORCE_FIELD_SETUP_FEATURE Force Field Setup information
v1.0  0 0.000000 0.000000 0.000000 0.000000 0.000000 0.000000 NONE 0 0 0 0 0 0 0 0 0 0 0 0 0
