#	Name:			plfoh_min
#	Creating user name:	jeff
#	Creation time:		Thu Dec 19 11:49:52 2002

#	Modifying user name:	jeff
#	Modification time:	Thu Dec 19 11:49:52 2002

@<TRIPOS>MOLECULE
plfoh_min
   44    44     1     2     0
SMALL
GASTEIGER


@<TRIPOS>ATOM
      1 H12        -3.906000    1.286000   -2.704000 H         1 MAIN        0.029025 
      2 H11        -2.876000    1.658000   -1.301000 H         1 MAIN        0.029025 
      3 C1         -2.947000    1.696000   -2.388000 C.3       1 MAIN       -0.023757 
      4 O2         -0.139743   -2.546292   -2.309097 O.3       1 MAIN       -0.803518 
      5 P3         -0.876000   -1.715000   -3.461000 P.3       1 MAIN       -0.006195 
      6 O4          0.210000   -0.886000   -4.406000 O.co2     1 MAIN       -0.552739 
      7 O5         -1.667000   -2.706000   -4.515000 O.co2     1 MAIN       -0.552739 
      8 H6         -2.983000   -0.828000   -3.259000 H         1 MAIN        0.145628 
      9 N6         -2.019000   -0.587000   -2.813000 N.am      1 MAIN       -0.338688 
     10 H7         -1.832000    1.048000   -4.072000 H         1 MAIN        0.059319 
     11 C7         -1.814000    0.863000   -2.998000 C.3       1 MAIN        0.096768 
     12 C8         -0.473000    1.298000   -2.482000 C.2       1 MAIN        0.233734 
     13 O9          0.346000    1.837000   -3.225000 O.2       1 MAIN       -0.273767 
     14 H16         1.834000    1.124000   -1.784000 H         1 MAIN        0.056314 
     15 C16         1.326000    1.323000   -0.840000 C.3       1 MAIN        0.066593 
     16 H17        -0.824000    0.755000   -0.396000 H         1 MAIN        0.149391 
     17 N17        -0.109000    1.080000   -1.151000 N.am      1 MAIN       -0.305505 
     18 H182        2.729000    2.930000   -0.535000 H         1 MAIN        0.033477 
     19 H181        1.163000    3.438000   -1.212000 H         1 MAIN        0.033477 
     20 C18         1.649000    2.786000   -0.486000 C.3       1 MAIN       -0.003914 
     21 C19         1.912000    0.354000    0.152000 C.2       1 MAIN        0.062260 
     22 O20         1.266000   -0.295000    0.966000 O.co2     1 MAIN       -0.547888 
     23 O21         3.258000    0.247000    0.155000 O.co2     1 MAIN       -0.547888 
     24 H24        -1.837000    3.508000   -2.613000 H         1 MAIN        0.029618 
     25 C24        -2.840000    3.157000   -2.853000 C.3       1 MAIN       -0.044594 
     26 H253       -3.753000    5.069000   -2.465000 H         1 MAIN        0.023234 
     27 H252       -4.858000    3.683000   -2.316000 H         1 MAIN        0.023234 
     28 H251       -3.654000    4.000000   -1.046000 H         1 MAIN        0.023234 
     29 C25        -3.849000    4.041000   -2.117000 C.3       1 MAIN       -0.062595 
     30 H283       -2.958000    4.313000   -4.673000 H         1 MAIN        0.023234 
     31 H282       -2.274000    2.682000   -4.882000 H         1 MAIN        0.023234 
     32 H281       -4.025000    2.888000   -4.638000 H         1 MAIN        0.023234 
     33 C28        -3.039000    3.268000   -4.371000 C.3       1 MAIN       -0.062595 
     34 C33         1.176000    3.158000    0.888000 C.ar      1 MAIN       -0.045254 
     35 H34         3.072000    2.725000    1.815000 H         1 MAIN        0.062030 
     36 C34         2.048000    3.064000    1.972000 C.ar      1 MAIN       -0.058503 
     37 H35         2.303000    3.323000    4.098000 H         1 MAIN        0.061766 
     38 C35         1.618000    3.401000    3.254000 C.ar      1 MAIN       -0.061500 
     39 H36        -0.033000    4.100000    4.450000 H         1 MAIN        0.061758 
     40 C36         0.310000    3.835000    3.450000 C.ar      1 MAIN       -0.061742 
     41 H37        -1.581000    4.273000    2.522000 H         1 MAIN        0.061766 
     42 C37        -0.558000    3.931000    2.366000 C.ar      1 MAIN       -0.061500 
     43 H38        -0.818000    3.669000    0.243000 H         1 MAIN        0.062030 
     44 C38        -0.132000    3.593000    1.086000 C.ar      1 MAIN       -0.058503 
@<TRIPOS>BOND
     1   11    3 1    
     2    3   25 1    
     3    5    4 1    
     4    5    6 ar   
     5    5    7 ar   
     6    9    5 1    
     7    9   11 1    
     8   11   12 1    
     9   12   13 2    
    10   12   17 am   
    11   17   15 1    
    12   15   20 1    
    13   15   21 1    
    14   20   34 1    
    15   21   22 ar   
    16   21   23 ar   
    17   25   29 1    
    18   25   33 1    
    19   34   36 ar   
    20   34   44 ar   
    21   36   38 ar   
    22   38   40 ar   
    23   40   42 ar   
    24   42   44 ar   
    25   44   43 1    
    26   42   41 1    
    27   40   39 1    
    28   38   37 1    
    29   36   35 1    
    30   33   30 1    
    31   33   31 1    
    32   33   32 1    
    33   29   26 1    
    34   29   27 1    
    35   29   28 1    
    36   25   24 1    
    37   20   18 1    
    38   20   19 1    
    39   17   16 1    
    40   15   14 1    
    41   11   10 1    
    42    9    8 1    
    43    3    1 1    
    44    3    2 1    
@<TRIPOS>SUBSTRUCTURE
     1 MAIN        1 PERM              0 ****  ****    0 ROOT 
@<TRIPOS>NORMAL
@<TRIPOS>ALT_TYPE
MMFF94_ALT_TYPE_SET 
MMFF94 1 HC 2 HC 3 CR 4 O3P 5 PO3 6 O3P 7 O3P 8 HNPO 9 NPO2 10 HC 11 CR \
12 C=ON 13 O=CN 14 HC 15 CR 16 HNCO 17 NC=O 18 HC 19 HC \
20 CR 21 CO2M 22 O2CM 23 O2CM 24 HC 25 CR 26 HC 27 HC \
28 HC 29 CR 30 HC 31 HC 32 HC 33 CR 34 CB 35 HC 36 CB \
37 HC 38 CB 39 HC 40 CB 41 HC 42 CB 43 HC 44 CB 
@<TRIPOS>FF_PBC
FORCE_FIELD_SETUP_FEATURE Force Field Setup information
v1.0  0 0.000000 0.000000 0.000000 0.000000 0.000000 0.000000 NONE 0 0 0 0 0 0 0 0 0 0 0 0 0
