#	Name:			po3_fagnh2_min
#	Creating user name:	jeff
#	Creation time:		Thu Dec 19 11:49:52 2002

#	Modifying user name:	jeff
#	Modification time:	Thu Dec 19 11:49:52 2002

@<TRIPOS>MOLECULE
po3_fagnh2_min
   44    44     1     2     0
SMALL
GASTEIGER


@<TRIPOS>ATOM
      1 H1         -1.936000    1.028000   -3.957000 H         1 MAIN        0.059641 
      2 C1         -1.787000    0.818000   -2.898000 C.3       1 MAIN        0.100539 
      3 H2         -1.875000   -0.840000   -1.664000 H         1 MAIN        0.145636 
      4 N2         -1.901000   -0.645000   -2.737000 N.am      1 MAIN       -0.338446 
      5 H32        -3.845000    1.056000   -2.307000 H         1 MAIN        0.033585 
      6 H31        -2.664000    1.585000   -1.085000 H         1 MAIN        0.033585 
      7 C3         -2.897000    1.569000   -2.150000 C.3       1 MAIN       -0.000783 
      8 C4         -0.410000    1.332000   -2.571000 C.2       1 MAIN        0.234130 
      9 O5          0.194000    1.875000   -3.494000 O.2       1 MAIN       -0.273754 
     10 C6         -3.011000    2.982000   -2.653000 C.ar      1 MAIN       -0.045143 
     11 H7         -3.734000    3.752000   -0.776000 H         1 MAIN        0.062030 
     12 C7         -3.460000    3.991000   -1.804000 C.ar      1 MAIN       -0.058501 
     13 H8         -2.342000    2.508000   -4.646000 H         1 MAIN        0.062030 
     14 C8         -2.675000    3.296000   -3.970000 C.ar      1 MAIN       -0.058501 
     15 H9         -3.923000    6.086000   -1.593000 H         1 MAIN        0.061766 
     16 C9         -3.562000    5.303000   -2.260000 C.ar      1 MAIN       -0.061500 
     17 H10        -2.489000    4.848000   -5.454000 H         1 MAIN        0.061766 
     18 C10        -2.764000    4.608000   -4.427000 C.ar      1 MAIN       -0.061500 
     19 H11        -3.267000    6.644000   -3.924000 H         1 MAIN        0.061758 
     20 C11        -3.204000    5.615000   -3.570000 C.ar      1 MAIN       -0.061742 
     21 H122        5.089000   -0.284000    1.401000 H         1 MAIN        0.055765 
     22 H121        3.568000    0.005000    2.279000 H         1 MAIN        0.055765 
     23 C12         4.006000   -0.403000    1.368000 C.3       1 MAIN        0.087945 
     24 P13        -0.753000   -1.727000   -3.459000 P.3       1 MAIN       -0.006189 
     25 H14         2.155000    1.206000   -1.999000 H         1 MAIN        0.059162 
     26 C14         1.598000    1.450000   -1.094000 C.3       1 MAIN        0.096615 
     27 H15        -0.443000    0.752000   -0.497000 H         1 MAIN        0.149496 
     28 N15         0.163000    1.137000   -1.318000 N.am      1 MAIN       -0.302737 
     29 H163        2.841000    3.152000   -0.639000 H         1 MAIN        0.025218 
     30 H162        1.422000    3.528000   -1.645000 H         1 MAIN        0.025218 
     31 H161        1.221000    3.209000    0.095000 H         1 MAIN        0.025218 
     32 C16         1.784000    2.943000   -0.800000 C.3       1 MAIN       -0.038077 
     33 C17         2.125000    0.630000    0.048000 C.2       1 MAIN        0.233478 
     34 O18         1.320000    0.222000    0.871000 O.2       1 MAIN       -0.273780 
     35 H192        4.301000   -3.783000    0.504000 H         1 MAIN        0.144978 
     36 H191        5.390000   -2.308000    0.055000 H         1 MAIN        0.144978 
     37 N19         4.518000   -2.717000    0.566000 N.am      1 MAIN       -0.328034 
     38 H20         4.181000    0.712000   -0.548000 H         1 MAIN        0.149242 
     39 N20         3.480000    0.356000    0.208000 N.am      1 MAIN       -0.305207 
     40 O21         0.023326   -2.593062   -2.360249 O.3       1 MAIN       -0.803518 
     41 O22         0.300000   -0.860000   -4.405000 O.co2     1 MAIN       -0.552739 
     42 O23         2.715000   -2.367000    1.878000 O.2       1 MAIN       -0.274312 
     43 C24         3.684000   -1.878000    1.297000 C.2       1 MAIN        0.227661 
     44 O25        -1.557000   -2.690000   -4.527000 O.co2     1 MAIN       -0.552739 
@<TRIPOS>BOND
     1    2    4 1    
     2    2    7 1    
     3    8    2 1    
     4    4   24 1    
     5    7   10 1    
     6    8    9 2    
     7   28    8 am   
     8   10   12 ar   
     9   10   14 ar   
    10   12   16 ar   
    11   14   18 ar   
    12   16   20 ar   
    13   18   20 ar   
    14   39   23 1    
    15   23   43 1    
    16   24   40 1    
    17   24   41 ar   
    18   24   44 ar   
    19   26   28 1    
    20   26   32 1    
    21   33   26 1    
    22   33   34 2    
    23   33   39 am   
    24   43   37 am   
    25   43   42 2    
    26   39   38 1    
    27   37   35 1    
    28   37   36 1    
    29   32   29 1    
    30   32   30 1    
    31   32   31 1    
    32   28   27 1    
    33   26   25 1    
    34   23   21 1    
    35   23   22 1    
    36   20   19 1    
    37   18   17 1    
    38   16   15 1    
    39   14   13 1    
    40   12   11 1    
    41    7    5 1    
    42    7    6 1    
    43    4    3 1    
    44    2    1 1    
@<TRIPOS>SUBSTRUCTURE
     1 MAIN        1 PERM              0 ****  ****    0 ROOT 
@<TRIPOS>NORMAL
@<TRIPOS>ALT_TYPE
MMFF94_ALT_TYPE_SET 
MMFF94 1 HC 2 CR 3 HNPO 4 NPO2 5 HC 6 HC 7 CR 8 C=ON 9 O=CN 10 CB 11 HC \
12 CB 13 HC 14 CB 15 HC 16 CB 17 HC 18 CB 19 HC 20 CB \
21 HC 22 HC 23 CR 24 PO3 25 HC 26 CR 27 HNCO 28 NC=O \
29 HC 30 HC 31 HC 32 CR 33 C=ON 34 O=CN 35 HNCO 36 HNCO \
37 NC=O 38 HNCO 39 NC=O 40 O3P 41 O3P 42 O=CN 43 C=ON \
44 O3P 
@<TRIPOS>FF_PBC
FORCE_FIELD_SETUP_FEATURE Force Field Setup information
v1.0  0 0.000000 0.000000 0.000000 0.000000 0.000000 0.000000 NONE 0 0 0 0 0 0 0 0 0 0 0 0 0
