#	Name:			ppheoh_min
#	Creating user name:	jeff
#	Creation time:		Thu Dec 19 11:49:52 2002

#	Modifying user name:	jeff
#	Modification time:	Thu Dec 19 11:49:52 2002

@<TRIPOS>MOLECULE
ppheoh_min
   25    25     1     2     0
SMALL
GASTEIGER


@<TRIPOS>ATOM
      1 H12        -1.448000    1.712000   -4.797000 H         1 MAIN        0.033474 
      2 H11        -3.110000    1.143000   -4.514000 H         1 MAIN        0.033474 
      3 C1         -2.265000    1.675000   -4.077000 C.3       1 MAIN       -0.004061 
      4 O2          0.002977   -2.370239   -2.329657 O.3       1 MAIN       -0.803519 
      5 P3         -0.760000   -1.601000   -3.507000 P.3       1 MAIN       -0.006267 
      6 O4          0.295000   -0.756000   -4.472000 O.co2     1 MAIN       -0.552740 
      7 O5         -1.525000   -2.660000   -4.519000 O.co2     1 MAIN       -0.552740 
      8 H6         -2.849000   -0.690000   -3.492000 H         1 MAIN        0.145536 
      9 N6         -1.959000   -0.521000   -2.886000 N.am      1 MAIN       -0.341184 
     10 H7         -2.483000    1.268000   -2.025000 H         1 MAIN        0.056165 
     11 C7         -1.800000    0.947000   -2.811000 C.3       1 MAIN        0.063187 
     12 C8         -0.433000    1.372000   -2.356000 C.2       1 MAIN        0.062111 
     13 O9          0.392000    1.979000   -3.043000 O.co2     1 MAIN       -0.547891 
     14 O10        -0.163000    1.045000   -1.070000 O.co2     1 MAIN       -0.547891 
     15 C12        -2.683000    3.074000   -3.718000 C.ar      1 MAIN       -0.045257 
     16 H13        -2.000000    3.946000   -5.565000 H         1 MAIN        0.062030 
     17 C13        -2.466000    4.131000   -4.597000 C.ar      1 MAIN       -0.058503 
     18 H14        -3.478000    2.496000   -1.799000 H         1 MAIN        0.062030 
     19 C14        -3.293000    3.321000   -2.487000 C.ar      1 MAIN       -0.058503 
     20 H17        -2.669000    6.250000   -4.935000 H         1 MAIN        0.061766 
     21 C17        -2.842000    5.426000   -4.243000 C.ar      1 MAIN       -0.061500 
     22 H18        -4.142000    4.798000   -1.165000 H         1 MAIN        0.061766 
     23 C18        -3.669000    4.614000   -2.129000 C.ar      1 MAIN       -0.061500 
     24 H19        -3.727000    6.685000   -2.729000 H         1 MAIN        0.061758 
     25 C19        -3.440000    5.671000   -3.007000 C.ar      1 MAIN       -0.061742 
@<TRIPOS>BOND
     1   11    3 1    
     2    3   15 1    
     3    5    4 1    
     4    9    5 1    
     5    5    6 ar   
     6    5    7 ar   
     7    9   11 1    
     8   11   12 1    
     9   12   13 ar   
    10   12   14 ar   
    11   15   17 ar   
    12   15   19 ar   
    13   17   21 ar   
    14   19   23 ar   
    15   21   25 ar   
    16   23   25 ar   
    17   25   24 1    
    18   23   22 1    
    19   21   20 1    
    20   19   18 1    
    21   17   16 1    
    22   11   10 1    
    23    9    8 1    
    24    3    1 1    
    25    3    2 1    
@<TRIPOS>SUBSTRUCTURE
     1 MAIN        1 PERM              0 ****  ****    0 ROOT 
@<TRIPOS>NORMAL
@<TRIPOS>ALT_TYPE
MMFF94_ALT_TYPE_SET 
MMFF94 1 HC 2 HC 3 CR 4 O3P 5 PO3 6 O3P 7 O3P 8 HNPO 9 NPO2 10 HC 11 CR \
12 CO2M 13 O2CM 14 O2CM 15 CB 16 HC 17 CB 18 HC 19 CB \
20 HC 21 CB 22 HC 23 CB 24 HC 25 CB 
@<TRIPOS>FF_PBC
FORCE_FIELD_SETUP_FEATURE Force Field Setup information
v1.0  0 0.000000 0.000000 0.000000 0.000000 0.000000 0.000000 NONE 0 0 0 0 0 0 0 0 0 0 0 0 0
