#	Name:			ppphe_min
#	Creating user name:	jeff
#	Creation time:		Thu Dec 19 11:49:52 2002

#	Modifying user name:	jeff
#	Modification time:	Thu Dec 19 11:49:52 2002

@<TRIPOS>MOLECULE
ppphe_min
   40    41     1     2     0
SMALL
GASTEIGER


@<TRIPOS>ATOM
      1 C1         -1.595000   -3.603000   -1.997000 C.3       1 MAIN        0.027935 
      2 C2         -1.397000   -2.377000   -2.836000 C.2       1 MAIN        0.213830 
      3 O3         -0.957000   -2.420000   -3.992000 O.2       1 MAIN       -0.275792 
      4 C4         -0.976000   -3.395000   -0.610000 C.3       1 MAIN       -0.019426 
      5 C5         -1.331000   -4.526000    0.309000 C.ar      1 MAIN       -0.046904 
      6 C6         -1.862000   -4.252000    1.568000 C.ar      1 MAIN       -0.058561 
      7 C7         -2.196000   -5.297000    2.429000 C.ar      1 MAIN       -0.061501 
      8 C8         -2.003000   -6.618000    2.031000 C.ar      1 MAIN       -0.061742 
      9 C9         -1.134000   -5.850000   -0.084000 C.ar      1 MAIN       -0.058561 
     10 C10        -1.471000   -6.895000    0.774000 C.ar      1 MAIN       -0.061501 
     11 N11        -1.741000   -1.177000   -2.214000 N.am      1 MAIN       -0.307017 
     12 C12        -1.675000    0.111000   -2.917000 C.3       1 MAIN        0.066535 
     13 C13        -0.480000    0.863000   -2.422000 C.2       1 MAIN        0.062259 
     14 O14        -0.211000    0.747000   -1.186000 O.co2     1 MAIN       -0.547888 
     15 O15         0.231000    1.596000   -3.175000 O.co2     1 MAIN       -0.547888 
     16 C16        -2.943000    0.908000   -2.602000 C.3       1 MAIN       -0.003915 
     17 C17        -3.130000    1.993000   -3.611000 C.ar      1 MAIN       -0.045254 
     18 C18        -3.465000    1.661000   -4.921000 C.ar      1 MAIN       -0.058503 
     19 C19        -3.628000    2.656000   -5.877000 C.ar      1 MAIN       -0.061500 
     20 C20        -3.450000    3.986000   -5.516000 C.ar      1 MAIN       -0.061742 
     21 C21        -2.955000    3.326000   -3.253000 C.ar      1 MAIN       -0.058503 
     22 C22        -3.112000    4.325000   -4.208000 C.ar      1 MAIN       -0.061500 
     23 H1         -1.111700   -4.461300   -2.486500 H         1 MAIN        0.036146 
     24 H2         -2.671700   -3.800700   -1.889400 H         1 MAIN        0.036146 
     25 H3         -1.353200   -2.453300   -0.184700 H         1 MAIN        0.031773 
     26 H4          0.118200   -3.340600   -0.708300 H         1 MAIN        0.031773 
     27 H5         -2.015700   -3.224900    1.878600 H         1 MAIN        0.062029 
     28 H6         -2.606200   -5.081100    3.408900 H         1 MAIN        0.061766 
     29 H7         -2.266700   -7.429800    2.699200 H         1 MAIN        0.061758 
     30 H8         -0.717000   -6.066700   -1.060900 H         1 MAIN        0.062029 
     31 H9         -1.319300   -7.922400    0.463400 H         1 MAIN        0.061766 
     32 H10        -2.041700   -1.194000   -1.260400 H         1 MAIN        0.149333 
     33 H11        -1.593900   -0.053000   -4.001700 H         1 MAIN        0.056313 
     34 H12        -2.853300    1.353900   -1.600500 H         1 MAIN        0.033477 
     35 H13        -3.812100    0.234200   -2.626900 H         1 MAIN        0.033477 
     36 H14        -3.599300    0.621200   -5.196400 H         1 MAIN        0.062030 
     37 H15        -3.891800    2.396900   -6.896000 H         1 MAIN        0.061766 
     38 H16        -3.575200    4.766000   -6.258300 H         1 MAIN        0.061758 
     39 H17        -2.697000    3.585300   -2.232600 H         1 MAIN        0.062030 
     40 H18        -2.971700    5.364600   -3.935000 H         1 MAIN        0.061766 
@<TRIPOS>BOND
     1    1    2 1    
     2    1    4 1    
     3    2    3 2    
     4    2   11 am   
     5    4    5 1    
     6    5    6 ar   
     7    5    9 ar   
     8    6    7 ar   
     9    7    8 ar   
    10    8   10 ar   
    11    9   10 ar   
    12   11   12 1    
    13   12   13 1    
    14   12   16 1    
    15   13   14 ar   
    16   13   15 ar   
    17   16   17 1    
    18   17   18 ar   
    19   17   21 ar   
    20   18   19 ar   
    21   19   20 ar   
    22   20   22 ar   
    23   21   22 ar   
    24    1   23 1    
    25    1   24 1    
    26    4   25 1    
    27    4   26 1    
    28    6   27 1    
    29    7   28 1    
    30    8   29 1    
    31    9   30 1    
    32   10   31 1    
    33   11   32 1    
    34   12   33 1    
    35   16   34 1    
    36   16   35 1    
    37   18   36 1    
    38   19   37 1    
    39   20   38 1    
    40   21   39 1    
    41   22   40 1    
@<TRIPOS>SUBSTRUCTURE
     1 MAIN        1 PERM              0 ****  ****    0 ROOT 
@<TRIPOS>NORMAL
@<TRIPOS>ALT_TYPE
MMFF94_ALT_TYPE_SET 
MMFF94 1 CR 2 C=ON 3 O=CN 4 CR 5 CB 6 CB 7 CB 8 CB 9 CB 10 CB 11 NC=O \
12 CR 13 CO2M 14 O2CM 15 O2CM 16 CR 17 CB 18 CB 19 CB \
20 CB 21 CB 22 CB 23 HC 24 HC 25 HC 26 HC 27 HC 28 HC \
29 HC 30 HC 31 HC 32 HNCO 33 HC 34 HC 35 HC 36 HC 37 HC \
38 HC 39 HC 40 HC
@<TRIPOS>FF_PBC
FORCE_FIELD_SETUP_FEATURE Force Field Setup information
v1.0  0 0.000000 0.000000 0.000000 0.000000 0.000000 0.000000 NONE 0 0 0 0 0 0 0 0 0 0 0 0 0
