#	Name:			r_thiorphan_min
#	Creating user name:	jeff
#	Creation time:		Thu Dec 19 11:49:53 2002

#	Modifying user name:	jeff
#	Modification time:	Thu Dec 19 11:49:53 2002

@<TRIPOS>MOLECULE
r_thiorphan_min
   31    31     1     2     0
SMALL
GASTEIGER


@<TRIPOS>ATOM
      1 H1         -0.242000   -3.099000   -3.624000 H         1 MAIN        0.101690 
      2 S1         -0.176000   -2.011000   -3.628000 S.3       1 MAIN       -0.176419 
      3 H22        -2.507000   -1.631000   -3.155000 H         1 MAIN        0.039194 
      4 H21        -1.534000   -1.684000   -1.666000 H         1 MAIN        0.039194 
      5 C2         -1.573000   -1.314000   -2.690000 C.3       1 MAIN        0.009440 
      6 H3         -1.246000    0.518000   -3.683000 H         1 MAIN        0.050928 
      7 C3         -1.519000    0.220000   -2.671000 C.3       1 MAIN        0.035811 
      8 H42        -3.671000    0.258000   -2.742000 H         1 MAIN        0.033134 
      9 H41        -2.974000    0.877000   -1.225000 H         1 MAIN        0.033134 
     10 C4         -2.865000    0.852000   -2.310000 C.3       1 MAIN       -0.008427 
     11 C5         -2.932000    2.247000   -2.848000 C.ar      1 MAIN       -0.045589 
     12 H6         -2.256000    1.663000   -4.810000 H         1 MAIN        0.062030 
     13 C6         -2.569000    2.490000   -4.173000 C.ar      1 MAIN       -0.058513 
     14 H7         -3.642000    3.109000   -1.004000 H         1 MAIN        0.062030 
     15 C7         -3.350000    3.300000   -2.036000 C.ar      1 MAIN       -0.058513 
     16 H8         -2.315000    3.974000   -5.716000 H         1 MAIN        0.061766 
     17 C8         -2.605000    3.784000   -4.683000 C.ar      1 MAIN       -0.061501 
     18 H9         -3.723000    5.419000   -1.914000 H         1 MAIN        0.061766 
     19 C9         -3.393000    4.595000   -2.546000 C.ar      1 MAIN       -0.061501 
     20 H10        -3.037000    5.852000   -4.261000 H         1 MAIN        0.061758 
     21 C10        -3.014000    4.836000   -3.867000 C.ar      1 MAIN       -0.061742 
     22 H11        -0.610000    0.429000   -0.651000 H         1 MAIN        0.149012 
     23 N11        -0.530000    0.697000   -1.704000 N.am      1 MAIN       -0.311070 
     24 C12         0.510000    1.495000   -2.153000 C.2       1 MAIN        0.218754 
     25 O13         0.540000    1.823000   -3.338000 O.2       1 MAIN       -0.275412 
     26 H142        2.422000    2.326000   -1.743000 H         1 MAIN        0.041879 
     27 H141        1.137000    2.819000   -0.615000 H         1 MAIN        0.041879 
     28 C14         1.550000    1.987000   -1.184000 C.3       1 MAIN        0.063469 
     29 C15         1.973000    0.907000   -0.230000 C.2       1 MAIN        0.050480 
     30 O16         1.201000    0.383000    0.564000 O.co2     1 MAIN       -0.549331 
     31 O17         3.272000    0.541000   -0.235000 O.co2     1 MAIN       -0.549331 
@<TRIPOS>BOND
     1    2    5 1    
     2    5    7 1    
     3    7   10 1    
     4    7   23 1    
     5   10   11 1    
     6   11   13 ar   
     7   11   15 ar   
     8   13   17 ar   
     9   15   19 ar   
    10   17   21 ar   
    11   19   21 ar   
    12   23   24 am   
    13   24   25 2    
    14   24   28 1    
    15   28   29 1    
    16   29   30 ar   
    17   29   31 ar   
    18   28   26 1    
    19   28   27 1    
    20   23   22 1    
    21   21   20 1    
    22   19   18 1    
    23   17   16 1    
    24   15   14 1    
    25   13   12 1    
    26   10    8 1    
    27   10    9 1    
    28    7    6 1    
    29    5    3 1    
    30    5    4 1    
    31    2    1 1    
@<TRIPOS>SUBSTRUCTURE
     1 MAIN        1 PERM              0 ****  ****    0 ROOT 
@<TRIPOS>NORMAL
@<TRIPOS>ALT_TYPE
MMFF94_ALT_TYPE_SET 
MMFF94 1 HS 2 S 3 HC 4 HC 5 CR 6 HC 7 CR 8 HC 9 HC 10 CR 11 CB 12 HC \
13 CB 14 HC 15 CB 16 HC 17 CB 18 HC 19 CB 20 HC 21 CB \
22 HNCO 23 NC=O 24 C=ON 25 O=CN 26 HC 27 HC 28 CR 29 CO2M \
30 O2CM 31 O2CM 
@<TRIPOS>FF_PBC
FORCE_FIELD_SETUP_FEATURE Force Field Setup information
v1.0  0 0.000000 0.000000 0.000000 0.000000 0.000000 0.000000 NONE 0 0 0 0 0 0 0 0 0 0 0 0 0
