#	Name:			s02p_fagnh2_min
#	Creating user name:	jeff
#	Creation time:		Thu Dec 19 11:49:53 2002

#	Modifying user name:	jeff
#	Modification time:	Thu Dec 19 11:49:53 2002

@<TRIPOS>MOLECULE
s02p_fagnh2_min
   45    45     1     2     0
SMALL
GASTEIGER


@<TRIPOS>ATOM
      1 H1         -1.782000    1.423000   -4.090000 H         1 MAIN        0.059683 
      2 C1         -1.751000    1.076000   -3.057000 C.3       1 MAIN        0.101779 
      3 H2         -2.253000   -0.682000   -2.099000 H         1 MAIN        0.147346 
      4 N2         -1.905000   -0.386000   -3.089000 N.am      1 MAIN       -0.319736 
      5 H32        -3.845000    1.229000   -2.576000 H         1 MAIN        0.033585 
      6 H31        -2.750000    1.698000   -1.253000 H         1 MAIN        0.033585 
      7 C3         -2.919000    1.749000   -2.329000 C.3       1 MAIN       -0.000741 
      8 C4         -0.410000    1.504000   -2.525000 C.2       1 MAIN        0.234173 
      9 O5          0.382000    2.093000   -3.251000 O.2       1 MAIN       -0.273754 
     10 C6         -3.031000    3.187000   -2.746000 C.ar      1 MAIN       -0.045143 
     11 H7         -3.854000    3.834000   -0.864000 H         1 MAIN        0.062030 
     12 C7         -3.539000    4.136000   -1.863000 C.ar      1 MAIN       -0.058501 
     13 H8         -2.254000    2.836000   -4.727000 H         1 MAIN        0.062030 
     14 C8         -2.639000    3.578000   -4.027000 C.ar      1 MAIN       -0.058501 
     15 H9         -4.048000    6.208000   -1.557000 H         1 MAIN        0.061766 
     16 C9         -3.646000    5.470000   -2.251000 C.ar      1 MAIN       -0.061500 
     17 H10        -2.426000    5.213000   -5.413000 H         1 MAIN        0.061766 
     18 C10        -2.739000    4.911000   -4.413000 C.ar      1 MAIN       -0.061500 
     19 H11        -3.310000    6.906000   -3.824000 H         1 MAIN        0.061758 
     20 C11        -3.238000    5.860000   -3.524000 C.ar      1 MAIN       -0.061742 
     21 H122        5.103000   -0.285000    1.192000 H         1 MAIN        0.055765 
     22 H121        3.666000    0.022000    2.197000 H         1 MAIN        0.055765 
     23 C12         4.019000   -0.387000    1.250000 C.3       1 MAIN        0.087945 
     24 P13        -0.578000   -1.413000   -3.467000 P.3       1 MAIN        0.128025 
     25 H14         2.013000    1.551000   -1.848000 H         1 MAIN        0.059162 
     26 C14         1.445000    1.631000   -0.921000 C.3       1 MAIN        0.096615 
     27 H15        -0.618000    0.798000   -0.477000 H         1 MAIN        0.149496 
     28 N15         0.031000    1.249000   -1.227000 N.am      1 MAIN       -0.302737 
     29 H163        2.547000    3.335000   -0.189000 H         1 MAIN        0.025218 
     30 H162        1.118000    3.750000   -1.166000 H         1 MAIN        0.025218 
     31 H161        0.916000    3.164000    0.502000 H         1 MAIN        0.025218 
     32 C16         1.511000    3.074000   -0.406000 C.3       1 MAIN       -0.038077 
     33 C17         2.057000    0.705000    0.091000 C.2       1 MAIN        0.233478 
     34 O18         1.309000    0.233000    0.927000 O.2       1 MAIN       -0.273780 
     35 H192        4.282000   -3.800000    0.494000 H         1 MAIN        0.144978 
     36 H191        5.405000   -2.356000    0.027000 H         1 MAIN        0.144978 
     37 N19         4.515000   -2.735000    0.529000 N.am      1 MAIN       -0.328034 
     38 H20         4.063000    0.764000   -0.656000 H         1 MAIN        0.149242 
     39 N20         3.416000    0.405000    0.144000 N.am      1 MAIN       -0.305207 
     40 O21        -1.009000   -2.687000   -4.133000 O.co2     1 MAIN       -0.529837 
     41 S22         0.395000   -1.781000   -1.689000 S.3       1 MAIN       -0.114638 
     42 O23         2.698000   -2.332000    1.794000 O.2       1 MAIN       -0.274312 
     43 C24         3.677000   -1.863000    1.214000 C.2       1 MAIN        0.227661 
     44 O25         0.424000   -0.639000   -4.533000 O.co2     1 MAIN       -0.529837 
     45 H3          1.186130   -2.382569   -1.857202 H         1 MAIN        0.109311 
@<TRIPOS>BOND
     1    2    4 1    
     2    2    7 1    
     3    8    2 1    
     4    4   24 1    
     5    7   10 1    
     6    8    9 2    
     7   28    8 am   
     8   10   12 ar   
     9   10   14 ar   
    10   12   16 ar   
    11   14   18 ar   
    12   16   20 ar   
    13   18   20 ar   
    14   39   23 1    
    15   23   43 1    
    16   24   40 ar   
    17   24   41 1    
    18   24   44 ar   
    19   26   28 1    
    20   26   32 1    
    21   33   26 1    
    22   33   34 2    
    23   33   39 am   
    24   43   37 am   
    25   43   42 2    
    26   39   38 1    
    27   37   35 1    
    28   37   36 1    
    29   32   29 1    
    30   32   30 1    
    31   32   31 1    
    32   28   27 1    
    33   26   25 1    
    34   23   21 1    
    35   23   22 1    
    36   20   19 1    
    37   18   17 1    
    38   16   15 1    
    39   14   13 1    
    40   12   11 1    
    41    7    5 1    
    42    7    6 1    
    43    4    3 1    
    44    2    1 1    
    45   41   45 1    
@<TRIPOS>SUBSTRUCTURE
     1 MAIN        1 PERM              0 ****  ****    0 ROOT 
@<TRIPOS>NORMAL
@<TRIPOS>ALT_TYPE
MMFF94_ALT_TYPE_SET 
MMFF94 1 HC 2 CR 3 HNPO 4 NPO2 5 HC 6 HC 7 CR 8 C=ON 9 O=CN 10 CB 11 HC \
12 CB 13 HC 14 CB 15 HC 16 CB 17 HC 18 CB 19 HC 20 CB \
21 HC 22 HC 23 CR 24 PO3 25 HC 26 CR 27 HNCO 28 NC=O \
29 HC 30 HC 31 HC 32 CR 33 C=ON 34 O=CN 35 HNCO 36 HNCO \
37 NC=O 38 HNCO 39 NC=O 40 O2P 41 S 42 O=CN 43 C=ON \
44 O2P 45 HS 
@<TRIPOS>FF_PBC
FORCE_FIELD_SETUP_FEATURE Force Field Setup information
v1.0  0 0.000000 0.000000 0.000000 0.000000 0.000000 0.000000 NONE 0 0 0 0 0 0 0 0 0 0 0 0 0
