#	Name:			s_thiorphan_min
#	Creating user name:	jeff
#	Creation time:		Thu Dec 19 11:49:53 2002

#	Modifying user name:	jeff
#	Modification time:	Thu Dec 19 11:49:53 2002

@<TRIPOS>MOLECULE
s_thiorphan_min
   31    31     1     2     0
SMALL
GASTEIGER


@<TRIPOS>ATOM
      1 H1         -0.127000   -2.915000   -3.410000 H         1 MAIN        0.101652 
      2 S1         -0.129000   -1.856000   -3.666000 S.3       1 MAIN       -0.177497 
      3 H22        -2.412000   -1.466000   -3.025000 H         1 MAIN        0.038121 
      4 H21        -1.286000   -1.140000   -1.685000 H         1 MAIN        0.038121 
      5 C2         -1.457000   -1.014000   -2.754000 C.3       1 MAIN        0.002089 
      6 H3         -1.510000    0.606000   -4.158000 H         1 MAIN        0.040523 
      7 C3         -1.510000    0.489000   -3.074000 C.3       1 MAIN        0.048230 
      8 H42        -3.651000    0.550000   -2.842000 H         1 MAIN        0.032069 
      9 H41        -2.739000    1.036000   -1.392000 H         1 MAIN        0.032069 
     10 C4         -2.785000    1.105000   -2.479000 C.3       1 MAIN       -0.015814 
     11 C5         -2.927000    2.546000   -2.872000 C.ar      1 MAIN       -0.046615 
     12 H6         -2.256000    2.237000   -4.899000 H         1 MAIN        0.062029 
     13 C6         -2.600000    2.963000   -4.162000 C.ar      1 MAIN       -0.058552 
     14 H7         -3.648000    3.145000   -0.932000 H         1 MAIN        0.062029 
     15 C7         -3.384000    3.472000   -1.938000 C.ar      1 MAIN       -0.058552 
     16 H8         -2.450000    4.633000   -5.517000 H         1 MAIN        0.061766 
     17 C8         -2.713000    4.306000   -4.510000 C.ar      1 MAIN       -0.061501 
     18 H9         -3.867000    5.539000   -1.555000 H         1 MAIN        0.061766 
     19 C9         -3.505000    4.816000   -2.286000 C.ar      1 MAIN       -0.061501 
     20 H10        -3.244000    6.285000   -3.841000 H         1 MAIN        0.061758 
     21 C10        -3.161000    5.232000   -3.571000 C.ar      1 MAIN       -0.061742 
     22 C11        -0.318000    1.195000   -2.501000 C.2       1 MAIN        0.217494 
     23 O12         0.473000    1.872000   -3.165000 O.2       1 MAIN       -0.275467 
     24 H13        -0.945000    0.570000   -0.543000 H         1 MAIN        0.149067 
     25 N13        -0.185000    1.100000   -1.117000 N.am      1 MAIN       -0.309792 
     26 H142        1.499000    2.357000   -1.099000 H         1 MAIN        0.052330 
     27 H141        0.598000    2.281000    0.434000 H         1 MAIN        0.052330 
     28 C14         0.963000    1.701000   -0.413000 C.3       1 MAIN        0.051180 
     29 C15         1.901000    0.639000    0.085000 C.2       1 MAIN        0.058801 
     30 O16         1.585000   -0.245000    0.875000 O.co2     1 MAIN       -0.548197 
     31 O17         3.171000    0.695000   -0.369000 O.co2     1 MAIN       -0.548197 
@<TRIPOS>BOND
     1    2    5 1    
     2    5    7 1    
     3    7   10 1    
     4    7   22 1    
     5   10   11 1    
     6   11   13 ar   
     7   11   15 ar   
     8   13   17 ar   
     9   15   19 ar   
    10   17   21 ar   
    11   19   21 ar   
    12   22   23 2    
    13   22   25 am   
    14   25   28 1    
    15   28   29 1    
    16   29   30 ar   
    17   29   31 ar   
    18   28   26 1    
    19   28   27 1    
    20   25   24 1    
    21   21   20 1    
    22   19   18 1    
    23   17   16 1    
    24   15   14 1    
    25   13   12 1    
    26   10    8 1    
    27   10    9 1    
    28    7    6 1    
    29    5    3 1    
    30    5    4 1    
    31    2    1 1    
@<TRIPOS>SUBSTRUCTURE
     1 MAIN        1 PERM              0 ****  ****    0 ROOT 
@<TRIPOS>NORMAL
@<TRIPOS>ALT_TYPE
MMFF94_ALT_TYPE_SET 
MMFF94 1 HS 2 S 3 HC 4 HC 5 CR 6 HC 7 CR 8 HC 9 HC 10 CR 11 CB 12 HC \
13 CB 14 HC 15 CB 16 HC 17 CB 18 HC 19 CB 20 HC 21 CB \
22 C=ON 23 O=CN 24 HNCO 25 NC=O 26 HC 27 HC 28 CR 29 CO2M \
30 O2CM 31 O2CM 
@<TRIPOS>FF_PBC
FORCE_FIELD_SETUP_FEATURE Force Field Setup information
v1.0  0 0.000000 0.000000 0.000000 0.000000 0.000000 0.000000 NONE 0 0 0 0 0 0 0 0 0 0 0 0 0
