#	Name:			so3_fagnh2_min
#	Creating user name:	jeff
#	Creation time:		Thu Dec 19 11:49:53 2002

#	Modifying user name:	jeff
#	Modification time:	Thu Dec 19 11:49:53 2002

@<TRIPOS>MOLECULE
so3_fagnh2_min
   45    45     1     2     1
SMALL
GASTEIGER


@<TRIPOS>ATOM
      1 H1         -1.756000    1.076000   -3.952000 H         1 <1>         0.068566 
      2 C1         -1.733000    0.850000   -2.886000 C.3       1 <1>         0.189305 
      3 H2         -1.863000   -0.846000   -1.684000 H         1 <1>         0.260916 
      4 N2         -1.851000   -0.624000   -2.751000 N.pl3     1 <1>         0.019442 
      5 H32        -3.843000    1.032000   -2.497000 H         1 <1>         0.033876 
      6 H31        -2.800000    1.551000   -1.151000 H         1 <1>         0.033876 
      7 C3         -2.926000    1.558000   -2.234000 C.3       1 <1>         0.007610 
      8 C4         -0.409000    1.382000   -2.386000 C.2       1 <1>         0.242793 
      9 O5          0.378000    2.017000   -3.100000 O.2       1 <1>        -0.273429 
     10 C6         -3.015000    2.978000   -2.712000 C.ar      1 <1>        -0.044846 
     11 H7         -3.802000    3.716000   -0.848000 H         1 <1>         0.062030 
     12 C7         -3.493000    3.973000   -1.861000 C.ar      1 <1>        -0.058497 
     13 H8         -2.269000    2.537000   -4.685000 H         1 <1>         0.062030 
     14 C8         -2.631000    3.312000   -4.010000 C.ar      1 <1>        -0.058497 
     15 H9         -3.959000    6.065000   -1.629000 H         1 <1>         0.061766 
     16 C9         -3.579000    5.292000   -2.298000 C.ar      1 <1>        -0.061500 
     17 H10        -2.398000    4.890000   -5.462000 H         1 <1>         0.061766 
     18 C10        -2.707000    4.633000   -4.448000 C.ar      1 <1>        -0.061500 
     19 H11        -3.233000    6.659000   -3.930000 H         1 <1>         0.061758 
     20 C11        -3.178000    5.625000   -3.590000 C.ar      1 <1>        -0.061742 
     21 H122        5.171000   -0.455000    1.017000 H         1 <1>         0.055765 
     22 H121        3.899000   -0.204000    2.237000 H         1 <1>         0.055765 
     23 C12         4.110000   -0.579000    1.236000 C.3       1 <1>         0.087945 
     24 S13        -0.664000   -1.615000   -3.451000 S.3       1 <1>         0.730351 
     25 H14         1.932000    1.686000   -1.480000 H         1 <1>         0.059162 
     26 C14         1.318000    1.481000   -0.603000 C.3       1 <1>         0.096618 
     27 H15        -0.750000    0.646000   -0.388000 H         1 <1>         0.149500 
     28 N15        -0.043000    1.117000   -1.071000 N.am      1 <1>        -0.302486 
     29 H163        2.249000    2.988000    0.625000 H         1 <1>         0.025218 
     30 H162        0.829000    3.555000   -0.285000 H         1 <1>         0.025218 
     31 H161        0.612000    2.522000    1.147000 H         1 <1>         0.025218 
     32 C16         1.247000    2.726000    0.285000 C.3       1 <1>        -0.038076 
     33 C17         1.955000    0.353000    0.163000 C.2       1 <1>         0.233478 
     34 O18         1.253000   -0.454000    0.751000 O.2       1 <1>        -0.273780 
     35 O19         2.947000   -2.576000    1.947000 O.2       1 <1>        -0.274312 
     36 H20         3.930000    0.877000   -0.425000 H         1 <1>         0.149242 
     37 N20         3.346000    0.269000    0.266000 N.am      1 <1>        -0.305207 
     38 O21         0.131000   -0.826000   -4.321000 O.2       1 <1>         0.195658 
     39 O22        -1.266000   -2.681000   -4.177000 O.2       1 <1>         0.195658 
     40 H232        4.384000   -3.987000    0.441000 H         1 <1>         0.144978 
     41 H231        5.404000   -2.512000   -0.149000 H         1 <1>         0.144978 
     42 N23         4.590000   -2.917000    0.451000 N.am      1 <1>        -0.328034 
     43 C24         3.812000   -2.066000    1.231000 C.2       1 <1>         0.227661 
     44 H25         1.048000   -2.857000   -2.723000 H         1 <1>         0.346983 
     45 O25         0.283000   -2.219000   -2.279000 O.3       1 <1>         0.026777 
@<TRIPOS>BOND
     1    2    4 1    
     2    2    7 1    
     3    8    2 1    
     4    4   24 1    
     5    7   10 1    
     6    8    9 2    
     7   28    8 am   
     8   10   12 ar   
     9   10   14 ar   
    10   12   16 ar   
    11   14   18 ar   
    12   16   20 ar   
    13   18   20 ar   
    14   37   23 1    
    15   23   43 1    
    16   24   38 2    
    17   24   39 2    
    18   24   45 1    
    19   26   28 1    
    20   26   32 1    
    21   33   26 1    
    22   33   34 2    
    23   33   37 am   
    24   43   35 2    
    25   43   42 am   
    26   45   44 1    
    27   42   40 1    
    28   42   41 1    
    29   37   36 1    
    30   32   29 1    
    31   32   30 1    
    32   32   31 1    
    33   28   27 1    
    34   26   25 1    
    35   23   21 1    
    36   23   22 1    
    37   20   19 1    
    38   18   17 1    
    39   16   15 1    
    40   14   13 1    
    41   12   11 1    
    42    7    5 1    
    43    7    6 1    
    44    4    3 1    
    45    2    1 1    
@<TRIPOS>SUBSTRUCTURE
     1 ****        2 TEMP              0 ****  ****    0 ROOT 
@<TRIPOS>SET
LAB$A_TYPE      STATIC     ATOMS    LABELGROUP SYSTEM 
45 1 2 3 4 5 6 7 8 9 10 11 12 13 14 15 16 17 18 19 \
 20 21 22 23 24 25 26 27 28 29 30 31 32 33 34 35 36 37 \
 38 39 40 41 42 43 44 45
@<TRIPOS>NORMAL
@<TRIPOS>ALT_TYPE
MMFF94_ALT_TYPE_SET 
MMFF94 1 HC 2 CR 3 HNSO 4 NSO3 5 HC 6 HC 7 CR 8 C=ON 9 O=CN 10 CB 11 HC \
12 CB 13 HC 14 CB 15 HC 16 CB 17 HC 18 CB 19 HC 20 CB \
21 HC 22 HC 23 CR 24 SO3 25 HC 26 CR 27 HNCO 28 NC=O \
29 HC 30 HC 31 HC 32 CR 33 C=ON 34 O=CN 35 O=CN 36 HNCO \
37 NC=O 38 O2S 39 O2S 40 HNCO 41 HNCO 42 NC=O 43 C=ON \
44 HOS 45 -OS 
@<TRIPOS>FF_PBC
FORCE_FIELD_SETUP_FEATURE Force Field Setup information
v1.0  0 0.000000 0.000000 0.000000 0.000000 0.000000 0.000000 NONE 0 0 0 0 1 0 0 0 0 0 0 0 0
