#	Name:			z_d_fpola_min
#	Creating user name:	jeff
#	Creation time:		Thu Dec 19 11:49:56 2002

#	Modifying user name:	jeff
#	Modification time:	Thu Dec 19 11:49:56 2002

@<TRIPOS>MOLECULE
z_d_fpola_min
   67    68     1     2     0
SMALL
GASTEIGER


@<TRIPOS>ATOM
      1 C1         -1.125000   -5.216000   -3.591000 C.2       1 MAIN        0.353123 
      2 O2         -2.357000   -5.202000   -3.427000 O.2       1 MAIN       -0.241337 
      3 O3         -0.527000   -6.238000   -4.247000 O.3       1 MAIN       -0.295140 
      4 H42        -1.978000   -7.671000   -3.972000 H         1 MAIN        0.061655 
      5 H41        -1.951000   -6.901000   -5.576000 H         1 MAIN        0.061655 
      6 C4         -1.335000   -7.286000   -4.764000 C.3       1 MAIN        0.083653 
      7 C5         -0.466000   -8.391000   -5.280000 C.ar      1 MAIN       -0.021282 
      8 H6         -0.776000   -7.886000   -7.352000 H         1 MAIN        0.062101 
      9 C6         -0.280000   -8.557000   -6.651000 C.ar      1 MAIN       -0.056372 
     10 H7          0.035000   -9.120000   -3.315000 H         1 MAIN        0.062101 
     11 C7          0.174000   -9.250000   -4.388000 C.ar      1 MAIN       -0.056372 
     12 H8          0.681000   -9.706000   -8.200000 H         1 MAIN        0.061767 
     13 C8          0.538000   -9.579000   -7.127000 C.ar      1 MAIN       -0.061429 
     14 H9          1.487000  -10.945000   -4.162000 H         1 MAIN        0.061767 
     15 C9          0.991000  -10.273000   -4.863000 C.ar      1 MAIN       -0.061429 
     16 H10         1.814000  -11.238000   -6.608000 H         1 MAIN        0.061758 
     17 C10         1.174000  -10.438000   -6.234000 C.ar      1 MAIN       -0.061740 
     18 H11         0.848000   -4.448000   -3.465000 H         1 MAIN        0.151715 
     19 N11        -0.187000   -4.249000   -3.189000 N.am      1 MAIN       -0.280912 
     20 H12         0.531000   -2.683000   -2.015000 H         1 MAIN        0.058757 
     21 C12        -0.425000   -2.993000   -2.437000 C.3       1 MAIN        0.088592 
     22 P13        -1.003000   -1.679000   -3.548000 P.3       1 MAIN        0.142045 
     23 O14         0.120000   -1.039000   -4.249000 O.co2     1 MAIN       -0.529587 
     24 O15        -1.844000   -2.386000   -4.749000 O.co2     1 MAIN       -0.529587 
     25 H162       -1.685000   -2.213000   -0.880000 H         1 MAIN        0.033579 
     26 H161       -2.241000   -3.754000   -1.575000 H         1 MAIN        0.033579 
     27 C16        -1.368000   -3.189000   -1.248000 C.3       1 MAIN       -0.001690 
     28 C17        -0.689000   -3.934000   -0.140000 C.ar      1 MAIN       -0.045152 
     29 H18        -1.658000   -5.812000   -0.566000 H         1 MAIN        0.062030 
     30 C18        -0.950000   -5.286000    0.076000 C.ar      1 MAIN       -0.058501 
     31 H19         0.428000   -2.210000    0.510000 H         1 MAIN        0.062030 
     32 C19         0.219000   -3.267000    0.679000 C.ar      1 MAIN       -0.058501 
     33 H20        -0.518000   -7.024000    1.276000 H         1 MAIN        0.061766 
     34 C20        -0.311000   -5.967000    1.109000 C.ar      1 MAIN       -0.061500 
     35 H21         1.570000   -3.420000    2.352000 H         1 MAIN        0.061766 
     36 C21         0.861000   -3.945000    1.713000 C.ar      1 MAIN       -0.061500 
     37 H22         1.097000   -5.828000    2.737000 H         1 MAIN        0.061758 
     38 C22         0.596000   -5.296000    1.928000 C.ar      1 MAIN       -0.061742 
     39 O23        -1.890000   -0.579000   -2.677000 O.3       1 MAIN       -0.326941 
     40 H24        -1.750000    0.849000   -4.131000 H         1 MAIN        0.069697 
     41 C24        -1.781000    0.802000   -3.043000 C.3       1 MAIN        0.140382 
     42 C25        -0.517000    1.401000   -2.486000 C.2       1 MAIN        0.242810 
     43 O26         0.322000    2.014000   -3.154000 O.2       1 MAIN       -0.272943 
     44 H272       -3.905000    1.144000   -2.927000 H         1 MAIN        0.029754 
     45 H271       -3.004000    1.613000   -1.465000 H         1 MAIN        0.029754 
     46 C27        -2.991000    1.607000   -2.555000 C.3       1 MAIN       -0.015285 
     47 H28        -1.905000    3.424000   -2.868000 H         1 MAIN        0.029640 
     48 C28        -2.910000    3.052000   -3.069000 C.3       1 MAIN       -0.043905 
     49 H293       -3.076000    4.146000   -4.922000 H         1 MAIN        0.023234 
     50 H292       -2.378000    2.517000   -5.091000 H         1 MAIN        0.023234 
     51 H291       -4.126000    2.712000   -4.820000 H         1 MAIN        0.023234 
     52 C29        -3.139000    3.111000   -4.585000 C.3       1 MAIN       -0.062572 
     53 H303       -3.826000    4.969000   -2.713000 H         1 MAIN        0.023234 
     54 H302       -4.916000    3.579000   -2.488000 H         1 MAIN        0.023234 
     55 H301       -3.676000    3.945000   -1.264000 H         1 MAIN        0.023234 
     56 C30        -3.903000    3.951000   -2.330000 C.3       1 MAIN       -0.062572 
     57 H31        -1.097000    0.709000   -0.534000 H         1 MAIN        0.149392 
     58 N31        -0.351000    1.253000   -1.113000 N.am      1 MAIN       -0.305471 
     59 H32         1.347000    2.467000   -1.144000 H         1 MAIN        0.055714 
     60 C32         0.825000    1.824000   -0.434000 C.3       1 MAIN        0.059860 
     61 C33         1.781000    0.746000   -0.009000 C.2       1 MAIN        0.061677 
     62 O34         1.504000   -0.163000    0.768000 O.co2     1 MAIN       -0.547908 
     63 H353        1.279000    3.097000    1.246000 H         1 MAIN        0.025109 
     64 H352       -0.240000    3.498000    0.410000 H         1 MAIN        0.025109 
     65 H351       -0.157000    2.070000    1.469000 H         1 MAIN        0.025109 
     66 C35         0.396000    2.685000    0.759000 C.3       1 MAIN       -0.041338 
     67 O36         3.027000    0.816000   -0.522000 O.co2     1 MAIN       -0.547908 
@<TRIPOS>BOND
     1    1   19 am   
     2    1    2 2    
     3    1    3 1    
     4    3    6 1    
     5    6    7 1    
     6    7    9 ar   
     7    7   11 ar   
     8    9   13 ar   
     9   11   15 ar   
    10   13   17 ar   
    11   15   17 ar   
    12   19   21 1    
    13   21   22 1    
    14   21   27 1    
    15   22   23 ar   
    16   22   24 ar   
    17   22   39 1    
    18   27   28 1    
    19   28   30 ar   
    20   28   32 ar   
    21   30   34 ar   
    22   32   36 ar   
    23   34   38 ar   
    24   36   38 ar   
    25   39   41 1    
    26   41   42 1    
    27   41   46 1    
    28   42   43 2    
    29   42   58 am   
    30   46   48 1    
    31   48   56 1    
    32   48   52 1    
    33   58   60 1    
    34   60   61 1    
    35   60   66 1    
    36   61   62 ar   
    37   61   67 ar   
    38   66   63 1    
    39   66   64 1    
    40   66   65 1    
    41   60   59 1    
    42   58   57 1    
    43   56   53 1    
    44   56   54 1    
    45   56   55 1    
    46   52   49 1    
    47   52   50 1    
    48   52   51 1    
    49   48   47 1    
    50   46   44 1    
    51   46   45 1    
    52   41   40 1    
    53   38   37 1    
    54   36   35 1    
    55   34   33 1    
    56   32   31 1    
    57   30   29 1    
    58   27   25 1    
    59   27   26 1    
    60   21   20 1    
    61   19   18 1    
    62   17   16 1    
    63   15   14 1    
    64   13   12 1    
    65   11   10 1    
    66    9    8 1    
    67    6    4 1    
    68    6    5 1    
@<TRIPOS>SUBSTRUCTURE
     1 MAIN        1 PERM              0 ****  ****    0 ROOT 
@<TRIPOS>NORMAL
@<TRIPOS>ALT_TYPE
MMFF94_ALT_TYPE_SET 
MMFF94 1 COO 2 O=CN 3 OC=O 4 HC 5 HC 6 CR 7 CB 8 HC 9 CB 10 HC 11 CB \
12 HC 13 CB 14 HC 15 CB 16 HC 17 CB 18 HNCO 19 NC=O 20 HC \
21 CR 22 PO3 23 O2P 24 O2P 25 HC 26 HC 27 CR 28 CB 29 HC \
30 CB 31 HC 32 CB 33 HC 34 CB 35 HC 36 CB 37 HC 38 CB \
39 OPO2 40 HC 41 CR 42 C=ON 43 O=CN 44 HC 45 HC 46 CR \
47 HC 48 CR 49 HC 50 HC 51 HC 52 CR 53 HC 54 HC 55 HC \
56 CR 57 HNCO 58 NC=O 59 HC 60 CR 61 CO2M 62 O2CM 63 HC \
64 HC 65 HC 66 CR 67 O2CM 
@<TRIPOS>FF_PBC
FORCE_FIELD_SETUP_FEATURE Force Field Setup information
v1.0  0 0.000000 0.000000 0.000000 0.000000 0.000000 0.000000 NONE 0 0 0 0 0 0 0 0 0 0 0 0 0
