#	Name:			z_d_apola_min
#	Creating user name:	jeff
#	Creation time:		Thu Dec 19 11:49:56 2002

#	Modifying user name:	jeff
#	Modification time:	Thu Dec 19 11:49:56 2002

@<TRIPOS>MOLECULE
z_d_apola_min
   57    57     1     2     0
SMALL
GASTEIGER


@<TRIPOS>ATOM
      1 C1          0.295000   -4.767000   -0.990000 C.2       1 MAIN        0.353106 
      2 O2          1.517000   -4.662000   -0.836000 O.2       1 MAIN       -0.241337 
      3 O3         -0.434000   -5.751000   -0.412000 O.3       1 MAIN       -0.295140 
      4 H42         1.252000   -6.766000    0.202000 H         1 MAIN        0.061655 
      5 H41         0.217000   -6.138000    1.506000 H         1 MAIN        0.061655 
      6 C4          0.222000   -6.602000    0.520000 C.3       1 MAIN        0.083653 
      7 C5         -0.498000   -7.909000    0.578000 C.ar      1 MAIN       -0.021282 
      8 H6         -1.803000   -7.316000    2.189000 H         1 MAIN        0.062101 
      9 C6         -1.524000   -8.112000    1.499000 C.ar      1 MAIN       -0.056372 
     10 H7          0.649000   -8.756000   -1.037000 H         1 MAIN        0.062101 
     11 C7         -0.148000   -8.920000   -0.312000 C.ar      1 MAIN       -0.056372 
     12 H8         -2.990000   -9.495000    2.258000 H         1 MAIN        0.061767 
     13 C8         -2.191000   -9.333000    1.535000 C.ar      1 MAIN       -0.061429 
     14 H9         -0.539000  -10.935000   -0.968000 H         1 MAIN        0.061767 
     15 C9         -0.816000  -10.141000   -0.274000 C.ar      1 MAIN       -0.061429 
     16 H10        -2.360000  -11.304000    0.678000 H         1 MAIN        0.061758 
     17 C10        -1.837000  -10.348000    0.649000 C.ar      1 MAIN       -0.061740 
     18 H11        -1.509000   -4.139000   -2.019000 H         1 MAIN        0.151694 
     19 N11        -0.486000   -3.887000   -1.741000 N.am      1 MAIN       -0.281499 
     20 H12         1.074000   -2.848000   -2.608000 H         1 MAIN        0.058153 
     21 C12         0.117000   -2.608000   -2.143000 C.3       1 MAIN        0.081854 
     22 P13        -0.818000   -1.699000   -3.415000 P.3       1 MAIN        0.141454 
     23 O14         0.113000   -0.962000   -4.297000 O.co2     1 MAIN       -0.529598 
     24 O15        -1.602000   -2.795000   -4.366000 O.co2     1 MAIN       -0.529598 
     25 H163        0.760000   -0.788000   -1.195000 H         1 MAIN        0.025210 
     26 H162       -0.653000   -1.557000   -0.432000 H         1 MAIN        0.025210 
     27 H161        0.970000   -2.250000   -0.202000 H         1 MAIN        0.025210 
     28 C16         0.313000   -1.739000   -0.905000 C.3       1 MAIN       -0.039107 
     29 O20        -1.847000   -0.641000   -2.644000 O.3       1 MAIN       -0.326957 
     30 H21        -1.704000    0.801000   -4.048000 H         1 MAIN        0.069697 
     31 C21        -1.757000    0.764000   -2.960000 C.3       1 MAIN        0.140382 
     32 C22        -0.506000    1.419000   -2.417000 C.2       1 MAIN        0.242810 
     33 O23         0.330000    2.010000   -3.112000 O.2       1 MAIN       -0.272943 
     34 H242       -3.890000    1.073000   -2.904000 H         1 MAIN        0.029754 
     35 H241       -3.039000    1.555000   -1.417000 H         1 MAIN        0.029754 
     36 C24        -2.994000    1.549000   -2.506000 C.3       1 MAIN       -0.015285 
     37 H25        -1.913000    3.368000   -2.799000 H         1 MAIN        0.029640 
     38 C25        -2.912000    2.993000   -3.021000 C.3       1 MAIN       -0.043905 
     39 H263       -3.050000    4.087000   -4.879000 H         1 MAIN        0.023234 
     40 H262       -2.339000    2.463000   -5.036000 H         1 MAIN        0.023234 
     41 H261       -4.093000    2.648000   -4.797000 H         1 MAIN        0.023234 
     42 C26        -3.113000    3.052000   -4.544000 C.3       1 MAIN       -0.062572 
     43 H273       -3.845000    4.903000   -2.692000 H         1 MAIN        0.023234 
     44 H272       -4.931000    3.508000   -2.486000 H         1 MAIN        0.023234 
     45 H271       -3.719000    3.885000   -1.238000 H         1 MAIN        0.023234 
     46 C27        -3.924000    3.886000   -2.308000 C.3       1 MAIN       -0.062572 
     47 H28        -1.102000    0.837000   -0.438000 H         1 MAIN        0.149392 
     48 N28        -0.361000    1.379000   -1.025000 N.am      1 MAIN       -0.305471 
     49 H29         1.236000    2.710000   -1.031000 H         1 MAIN        0.055714 
     50 C29         0.752000    2.038000   -0.322000 C.3       1 MAIN        0.059860 
     51 C30         1.794000    1.047000    0.138000 C.2       1 MAIN        0.061677 
     52 O31         1.661000    0.285000    1.092000 O.co2     1 MAIN       -0.547908 
     53 H323        1.065000    3.343000    1.369000 H         1 MAIN        0.025109 
     54 H322       -0.460000    3.625000    0.496000 H         1 MAIN        0.025109 
     55 H321       -0.292000    2.208000    1.559000 H         1 MAIN        0.025109 
     56 C32         0.228000    2.863000    0.861000 C.3       1 MAIN       -0.041338 
     57 O33         2.940000    1.013000   -0.571000 O.co2     1 MAIN       -0.547908 
@<TRIPOS>BOND
     1    1    2 2    
     2    1    3 1    
     3    1   19 am   
     4    3    6 1    
     5    6    7 1    
     6    7    9 ar   
     7    7   11 ar   
     8    9   13 ar   
     9   11   15 ar   
    10   13   17 ar   
    11   15   17 ar   
    12   19   21 1    
    13   21   22 1    
    14   21   28 1    
    15   22   23 ar   
    16   22   24 ar   
    17   22   29 1    
    18   29   31 1    
    19   31   32 1    
    20   31   36 1    
    21   32   33 2    
    22   32   48 am   
    23   36   38 1    
    24   38   42 1    
    25   38   46 1    
    26   48   50 1    
    27   50   51 1    
    28   50   56 1    
    29   51   52 ar   
    30   51   57 ar   
    31   56   53 1    
    32   56   54 1    
    33   56   55 1    
    34   50   49 1    
    35   48   47 1    
    36   46   43 1    
    37   46   44 1    
    38   46   45 1    
    39   42   39 1    
    40   42   40 1    
    41   42   41 1    
    42   38   37 1    
    43   36   34 1    
    44   36   35 1    
    45   31   30 1    
    46   28   25 1    
    47   28   26 1    
    48   28   27 1    
    49   21   20 1    
    50   19   18 1    
    51   17   16 1    
    52   15   14 1    
    53   13   12 1    
    54   11   10 1    
    55    9    8 1    
    56    6    4 1    
    57    6    5 1    
@<TRIPOS>SUBSTRUCTURE
     1 MAIN        1 PERM              0 ****  ****    0 ROOT 
@<TRIPOS>NORMAL
@<TRIPOS>ALT_TYPE
MMFF94_ALT_TYPE_SET 
MMFF94 1 COO 2 O=CN 3 OC=O 4 HC 5 HC 6 CR 7 CB 8 HC 9 CB 10 HC 11 CB \
12 HC 13 CB 14 HC 15 CB 16 HC 17 CB 18 HNCO 19 NC=O 20 HC \
21 CR 22 PO3 23 O2P 24 O2P 25 HC 26 HC 27 HC 28 CR 29 OPO2 \
30 HC 31 CR 32 C=ON 33 O=CN 34 HC 35 HC 36 CR 37 HC \
38 CR 39 HC 40 HC 41 HC 42 CR 43 HC 44 HC 45 HC 46 CR \
47 HNCO 48 NC=O 49 HC 50 CR 51 CO2M 52 O2CM 53 HC 54 HC \
55 HC 56 CR 57 O2CM 
@<TRIPOS>FF_PBC
FORCE_FIELD_SETUP_FEATURE Force Field Setup information
v1.0  0 0.000000 0.000000 0.000000 0.000000 0.000000 0.000000 NONE 0 0 0 0 0 0 0 0 0 0 0 0 0
