#	Name:			z_d_lpola_min
#	Creating user name:	jeff
#	Creation time:		Thu Dec 19 11:49:56 2002

#	Modifying user name:	jeff
#	Modification time:	Thu Dec 19 11:49:56 2002

@<TRIPOS>MOLECULE
z_d_lpola_min
   66    66     1     2     0
SMALL
GASTEIGER


@<TRIPOS>ATOM
      1 C1         -1.152000   -5.234000   -3.647000 C.2       1 MAIN        0.353114 
      2 O2         -2.382000   -5.233000   -3.464000 O.2       1 MAIN       -0.241337 
      3 O3         -0.556000   -6.239000   -4.332000 O.3       1 MAIN       -0.295140 
      4 H42        -2.021000   -7.660000   -4.072000 H         1 MAIN        0.061655 
      5 H41        -1.948000   -6.918000   -5.688000 H         1 MAIN        0.061655 
      6 C4         -1.356000   -7.291000   -4.852000 C.3       1 MAIN        0.083653 
      7 C5         -0.475000   -8.407000   -5.325000 C.ar      1 MAIN       -0.021282 
      8 H6         -0.741000   -7.951000   -7.415000 H         1 MAIN        0.062101 
      9 C6         -0.260000   -8.604000   -6.687000 C.ar      1 MAIN       -0.056372 
     10 H7         -0.018000   -9.087000   -3.332000 H         1 MAIN        0.062101 
     11 C7          0.146000   -9.242000   -4.398000 C.ar      1 MAIN       -0.056372 
     12 H8          0.737000   -9.788000   -8.187000 H         1 MAIN        0.061767 
     13 C8          0.570000   -9.635000   -7.120000 C.ar      1 MAIN       -0.061429 
     14 H9          1.457000  -10.929000   -4.103000 H         1 MAIN        0.061767 
     15 C9          0.975000  -10.275000   -4.831000 C.ar      1 MAIN       -0.061429 
     16 H10         1.836000  -11.279000   -6.534000 H         1 MAIN        0.061758 
     17 C10         1.188000  -10.472000   -6.194000 C.ar      1 MAIN       -0.061740 
     18 H11         0.820000   -4.460000   -3.531000 H         1 MAIN        0.151704 
     19 N11        -0.212000   -4.272000   -3.235000 N.am      1 MAIN       -0.281222 
     20 H12         0.511000   -2.753000   -2.006000 H         1 MAIN        0.058439 
     21 C12        -0.444000   -3.033000   -2.449000 C.3       1 MAIN        0.084886 
     22 P13        -1.008000   -1.696000   -3.544000 P.3       1 MAIN        0.141733 
     23 O14         0.118000   -1.059000   -4.241000 O.co2     1 MAIN       -0.529592 
     24 O15        -1.851000   -2.379000   -4.757000 O.co2     1 MAIN       -0.529592 
     25 H162       -1.796000   -2.261000   -0.970000 H         1 MAIN        0.029019 
     26 H161       -2.226000   -3.872000   -1.592000 H         1 MAIN        0.029019 
     27 C16        -1.404000   -3.234000   -1.266000 C.3       1 MAIN       -0.024661 
     28 H17         0.259000   -3.455000    0.057000 H         1 MAIN        0.029618 
     29 C17        -0.738000   -3.885000   -0.042000 C.3       1 MAIN       -0.044602 
     30 H183       -1.086000   -4.055000    2.080000 H         1 MAIN        0.023234 
     31 H182       -1.622000   -2.514000    1.368000 H         1 MAIN        0.023234 
     32 H181       -2.567000   -3.997000    1.094000 H         1 MAIN        0.023234 
     33 C18        -1.563000   -3.591000    1.216000 C.3       1 MAIN       -0.062594 
     34 H193       -0.104000   -5.819000    0.676000 H         1 MAIN        0.023234 
     35 H192       -1.560000   -5.857000   -0.347000 H         1 MAIN        0.023234 
     36 H191        0.041000   -5.607000   -1.085000 H         1 MAIN        0.023234 
     37 C19        -0.579000   -5.402000   -0.212000 C.3       1 MAIN       -0.062594 
     38 O23        -1.887000   -0.596000   -2.665000 O.3       1 MAIN       -0.326949 
     39 H24        -1.749000    0.831000   -4.119000 H         1 MAIN        0.069697 
     40 C24        -1.775000    0.785000   -3.030000 C.3       1 MAIN        0.140382 
     41 C25        -0.507000    1.383000   -2.482000 C.2       1 MAIN        0.242810 
     42 O26         0.327000    2.001000   -3.153000 O.2       1 MAIN       -0.272943 
     43 H272       -3.898000    1.125000   -2.895000 H         1 MAIN        0.029754 
     44 H271       -2.982000    1.610000   -1.448000 H         1 MAIN        0.029754 
     45 C27        -2.981000    1.593000   -2.537000 C.3       1 MAIN       -0.015285 
     46 H28        -1.903000    3.409000   -2.878000 H         1 MAIN        0.029640 
     47 C28        -2.908000    3.033000   -3.067000 C.3       1 MAIN       -0.043905 
     48 H293       -3.094000    4.107000   -4.930000 H         1 MAIN        0.023234 
     49 H292       -2.393000    2.478000   -5.088000 H         1 MAIN        0.023234 
     50 H291       -4.139000    2.672000   -4.802000 H         1 MAIN        0.023234 
     51 C29        -3.151000    3.075000   -4.582000 C.3       1 MAIN       -0.062572 
     52 H303       -3.827000    4.950000   -2.723000 H         1 MAIN        0.023234 
     53 H302       -4.911000    3.560000   -2.476000 H         1 MAIN        0.023234 
     54 H301       -3.663000    3.941000   -1.266000 H         1 MAIN        0.023234 
     55 C30        -3.898000    3.936000   -2.330000 C.3       1 MAIN       -0.062572 
     56 H31        -1.077000    0.692000   -0.526000 H         1 MAIN        0.149392 
     57 N31        -0.329000    1.229000   -1.110000 N.am      1 MAIN       -0.305471 
     58 H32         1.392000    2.408000   -1.158000 H         1 MAIN        0.055714 
     59 C32         0.859000    1.785000   -0.440000 C.3       1 MAIN        0.059860 
     60 C33         1.796000    0.694000   -0.002000 C.2       1 MAIN        0.061677 
     61 O34         1.491000   -0.224000    0.753000 O.co2     1 MAIN       -0.547908 
     62 H353        1.341000    3.067000    1.226000 H         1 MAIN        0.025109 
     63 H352       -0.172000    3.488000    0.388000 H         1 MAIN        0.025109 
     64 H351       -0.115000    2.070000    1.462000 H         1 MAIN        0.025109 
     65 C35         0.449000    2.666000    0.744000 C.3       1 MAIN       -0.041338 
     66 O36         3.057000    0.767000   -0.475000 O.co2     1 MAIN       -0.547908 
@<TRIPOS>BOND
     1    1   19 am   
     2    1    2 2    
     3    1    3 1    
     4    3    6 1    
     5    6    7 1    
     6    7   11 ar   
     7    7    9 ar   
     8    9   13 ar   
     9   11   15 ar   
    10   13   17 ar   
    11   15   17 ar   
    12   19   21 1    
    13   21   22 1    
    14   21   27 1    
    15   22   23 ar   
    16   22   24 ar   
    17   22   38 1    
    18   27   29 1    
    19   29   33 1    
    20   29   37 1    
    21   38   40 1    
    22   40   41 1    
    23   40   45 1    
    24   41   42 2    
    25   41   57 am   
    26   45   47 1    
    27   47   51 1    
    28   47   55 1    
    29   57   59 1    
    30   59   60 1    
    31   59   65 1    
    32   60   61 ar   
    33   60   66 ar   
    34   65   62 1    
    35   65   63 1    
    36   65   64 1    
    37   59   58 1    
    38   57   56 1    
    39   55   52 1    
    40   55   53 1    
    41   55   54 1    
    42   51   48 1    
    43   51   49 1    
    44   51   50 1    
    45   47   46 1    
    46   45   43 1    
    47   45   44 1    
    48   40   39 1    
    49   37   34 1    
    50   37   35 1    
    51   37   36 1    
    52   33   30 1    
    53   33   31 1    
    54   33   32 1    
    55   29   28 1    
    56   27   25 1    
    57   27   26 1    
    58   21   20 1    
    59   19   18 1    
    60   17   16 1    
    61   15   14 1    
    62   13   12 1    
    63   11   10 1    
    64    9    8 1    
    65    6    4 1    
    66    6    5 1    
@<TRIPOS>SUBSTRUCTURE
     1 MAIN        1 PERM              0 ****  ****    0 ROOT 
@<TRIPOS>NORMAL
@<TRIPOS>ALT_TYPE
MMFF94_ALT_TYPE_SET 
MMFF94 1 COO 2 O=CN 3 OC=O 4 HC 5 HC 6 CR 7 CB 8 HC 9 CB 10 HC 11 CB \
12 HC 13 CB 14 HC 15 CB 16 HC 17 CB 18 HNCO 19 NC=O 20 HC \
21 CR 22 PO3 23 O2P 24 O2P 25 HC 26 HC 27 CR 28 HC 29 CR \
30 HC 31 HC 32 HC 33 CR 34 HC 35 HC 36 HC 37 CR 38 OPO2 \
39 HC 40 CR 41 C=ON 42 O=CN 43 HC 44 HC 45 CR 46 HC \
47 CR 48 HC 49 HC 50 HC 51 CR 52 HC 53 HC 54 HC 55 CR \
56 HNCO 57 NC=O 58 HC 59 CR 60 CO2M 61 O2CM 62 HC 63 HC \
64 HC 65 CR 66 O2CM 
@<TRIPOS>FF_PBC
FORCE_FIELD_SETUP_FEATURE Force Field Setup information
v1.0  0 0.000000 0.000000 0.000000 0.000000 0.000000 0.000000 NONE 0 0 0 0 0 0 0 0 0 0 0 0 0
