#	Name:			z_d_fpla_min
#	Creating user name:	jeff
#	Creation time:		Thu Dec 19 11:49:56 2002

#	Modifying user name:	jeff
#	Modification time:	Thu Dec 19 11:49:56 2002

@<TRIPOS>MOLECULE
z_d_fpla_min
   68    69     1     1     2
SMALL
GASTEIGER


@<TRIPOS>ATOM
      1 C1         -1.128000   -5.207000   -3.573000 C.2       1 MAIN        0.353103 
      2 O2         -2.362000   -5.202000   -3.421000 O.2       1 MAIN       -0.241337 
      3 O3         -0.520000   -6.228000   -4.224000 O.3       1 MAIN       -0.295140 
      4 H42        -1.987000   -7.651000   -3.984000 H         1 MAIN        0.061655 
      5 H41        -1.922000   -6.875000   -5.584000 H         1 MAIN        0.061655 
      6 C4         -1.325000   -7.268000   -4.761000 C.3       1 MAIN        0.083653 
      7 C5         -0.455000   -8.378000   -5.264000 C.ar      1 MAIN       -0.021282 
      8 H6         -0.745000   -7.884000   -7.342000 H         1 MAIN        0.062101 
      9 C6         -0.258000   -8.553000   -6.632000 C.ar      1 MAIN       -0.056372 
     10 H7          0.025000   -9.096000   -3.289000 H         1 MAIN        0.062101 
     11 C7          0.173000   -9.234000   -4.360000 C.ar      1 MAIN       -0.056372 
     12 H8          0.711000   -9.717000   -8.165000 H         1 MAIN        0.061767 
     13 C8          0.559000   -9.582000   -7.094000 C.ar      1 MAIN       -0.061429 
     14 H9          1.477000  -10.933000   -4.112000 H         1 MAIN        0.061767 
     15 C9          0.990000  -10.264000   -4.821000 C.ar      1 MAIN       -0.061429 
     16 H10         1.822000  -11.244000   -6.553000 H         1 MAIN        0.061758 
     17 C10         1.183000  -10.439000   -6.190000 C.ar      1 MAIN       -0.061740 
     18 H11         0.839000   -4.425000   -3.410000 H         1 MAIN        0.151690 
     19 N11        -0.204000   -4.231000   -3.160000 N.am      1 MAIN       -0.281607 
     20 H12         0.464000   -2.631000   -1.985000 H         1 MAIN        0.058041 
     21 C12        -0.473000   -2.969000   -2.426000 C.3       1 MAIN        0.080503 
     22 P13        -1.040000   -1.681000   -3.577000 P.3       1 MAIN        0.092631 
     23 O14         0.105000   -1.033000   -4.243000 O.co2     1 MAIN       -0.536114 
     24 O15        -1.841000   -2.416000   -4.779000 O.co2     1 MAIN       -0.536114 
     25 H162       -1.723000   -2.192000   -0.862000 H         1 MAIN        0.033556 
     26 H161       -2.301000   -3.715000   -1.580000 H         1 MAIN        0.033556 
     27 C16        -1.421000   -3.168000   -1.243000 C.3       1 MAIN       -0.002367 
     28 C17        -0.759000   -3.939000   -0.140000 C.ar      1 MAIN       -0.045175 
     29 H18         0.229000   -2.201000    0.663000 H         1 MAIN        0.062030 
     30 C18         0.068000   -3.275000    0.763000 C.ar      1 MAIN       -0.058501 
     31 H19        -1.602000   -5.838000   -0.716000 H         1 MAIN        0.062030 
     32 C19        -0.958000   -5.314000   -0.010000 C.ar      1 MAIN       -0.058501 
     33 H20         1.336000   -3.452000    2.498000 H         1 MAIN        0.061766 
     34 C20         0.691000   -3.976000    1.793000 C.ar      1 MAIN       -0.061500 
     35 H21        -0.496000   -7.092000    1.117000 H         1 MAIN        0.061766 
     36 C21        -0.337000   -6.019000    1.019000 C.ar      1 MAIN       -0.061500 
     37 H22         0.973000   -5.900000    2.727000 H         1 MAIN        0.061758 
     38 C22         0.488000   -5.349000    1.921000 C.ar      1 MAIN       -0.061742 
     39 H23        -3.068000   -0.789000   -2.974000 H         1 MAIN        0.146681 
     40 N23        -2.030000   -0.536000   -2.756000 N.am      1 MAIN       -0.326446 
     41 H24        -1.810000    0.980000   -4.167000 H         1 MAIN        0.059344 
     42 C24        -1.849000    0.900000   -3.080000 C.3       1 MAIN        0.097535 
     43 C25        -0.560000    1.430000   -2.512000 C.2       1 MAIN        0.233743 
     44 O26         0.297000    2.030000   -3.171000 O.2       1 MAIN       -0.273767 
     45 H272       -3.958000    1.332000   -2.965000 H         1 MAIN        0.029026 
     46 H271       -3.049000    1.705000   -1.481000 H         1 MAIN        0.029026 
     47 C27        -3.027000    1.740000   -2.570000 C.3       1 MAIN       -0.023732 
     48 H28        -1.871000    3.528000   -2.774000 H         1 MAIN        0.029618 
     49 C28        -2.879000    3.199000   -3.028000 C.3       1 MAIN       -0.044593 
     50 H293       -2.936000    4.364000   -4.844000 H         1 MAIN        0.023234 
     51 H292       -2.285000    2.720000   -5.047000 H         1 MAIN        0.023234 
     52 H291       -4.036000    2.964000   -4.835000 H         1 MAIN        0.023234 
     53 C29        -3.046000    3.320000   -4.549000 C.3       1 MAIN       -0.062595 
     54 H303       -3.746000    5.132000   -2.638000 H         1 MAIN        0.023234 
     55 H302       -4.888000    3.773000   -2.506000 H         1 MAIN        0.023234 
     56 H301       -3.687000    4.053000   -1.223000 H         1 MAIN        0.023234 
     57 C30        -3.871000    4.104000   -2.296000 C.3       1 MAIN       -0.062595 
     58 H31        -1.135000    0.704000   -0.569000 H         1 MAIN        0.149370 
     59 N31        -0.388000    1.254000   -1.143000 N.am      1 MAIN       -0.306088 
     60 H32         1.326000    2.440000   -1.173000 H         1 MAIN        0.055714 
     61 C32         0.798000    1.805000   -0.462000 C.3       1 MAIN        0.059838 
     62 C33         1.746000    0.717000   -0.043000 C.2       1 MAIN        0.061677 
     63 O34         1.462000   -0.202000    0.718000 O.co2     1 MAIN       -0.547908 
     64 H353        1.272000    3.063000    1.223000 H         1 MAIN        0.025109 
     65 H352       -0.241000    3.491000    0.389000 H         1 MAIN        0.025109 
     66 H351       -0.180000    2.058000    1.443000 H         1 MAIN        0.025109 
     67 C35         0.382000    2.666000    0.734000 C.3       1 MAIN       -0.041338 
     68 O36         2.998000    0.795000   -0.541000 O.co2     1 MAIN       -0.547908 
@<TRIPOS>BOND
     1    1    2 2    
     2    1    3 1    
     3    1   19 am   
     4    3    6 1    
     5    6    7 1    
     6    7    9 ar   
     7    7   11 ar   
     8    9   13 ar   
     9   11   15 ar   
    10   13   17 ar   
    11   15   17 ar   
    12   19   21 1    
    13   21   22 1    
    14   21   27 1    
    15   22   23 ar   
    16   22   24 ar   
    17   22   40 1    
    18   27   28 1    
    19   28   30 ar   
    20   28   32 ar   
    21   30   34 ar   
    22   32   36 ar   
    23   34   38 ar   
    24   36   38 ar   
    25   40   42 1    
    26   42   43 1    
    27   42   47 1    
    28   43   44 2    
    29   43   59 am   
    30   47   49 1    
    31   49   53 1    
    32   49   57 1    
    33   59   61 1    
    34   61   62 1    
    35   61   67 1    
    36   62   63 ar   
    37   62   68 ar   
    38   67   64 1    
    39   67   65 1    
    40   67   66 1    
    41   61   60 1    
    42   59   58 1    
    43   57   54 1    
    44   57   55 1    
    45   57   56 1    
    46   53   50 1    
    47   53   51 1    
    48   53   52 1    
    49   49   48 1    
    50   47   45 1    
    51   47   46 1    
    52   42   41 1    
    53   40   39 1    
    54   38   37 1    
    55   36   35 1    
    56   34   33 1    
    57   32   31 1    
    58   30   29 1    
    59   27   25 1    
    60   27   26 1    
    61   21   20 1    
    62   19   18 1    
    63   17   16 1    
    64   15   14 1    
    65   13   12 1    
    66   11   10 1    
    67    9    8 1    
    68    6    4 1    
    69    6    5 1    
@<TRIPOS>SUBSTRUCTURE
     1 MAIN        1 PERM              0 ****  ****    0 ROOT 
@<TRIPOS>SET
LAB$A_ID        STATIC     ATOMS    LABELGROUP SYSTEM 
68 1 2 3 4 5 6 7 8 9 10 11 12 13 14 15 16 17 18 19 \
 20 21 22 23 24 25 26 27 28 29 30 31 32 33 34 35 36 37 \
 38 39 40 41 42 43 44 45 46 47 48 49 50 51 52 53 54 55 \
 56 57 58 59 60 61 62 63 64 65 66 67 68
LAB$A_TYPE      STATIC     ATOMS    LABELGROUP SYSTEM 
68 1 2 3 4 5 6 7 8 9 10 11 12 13 14 15 16 17 18 19 \
 20 21 22 23 24 25 26 27 28 29 30 31 32 33 34 35 36 37 \
 38 39 40 41 42 43 44 45 46 47 48 49 50 51 52 53 54 55 \
 56 57 58 59 60 61 62 63 64 65 66 67 68
@<TRIPOS>NORMAL
@<TRIPOS>FF_PBC
FORCE_FIELD_SETUP_FEATURE Force Field Setup information
v1.0  0 0.000000 0.000000 0.000000 0.000000 0.000000 0.000000 NONE 0 0 0 0 0 0 0 0 0 0 0 0 0
