#	Name:			z_nh_glnh2_min
#	Creating user name:	jeff
#	Creation time:		Thu Dec 19 11:49:56 2002

#	Modifying user name:	jeff
#	Modification time:	Thu Dec 19 11:49:56 2002

@<TRIPOS>MOLECULE
z_nh_glnh2_min
   45    45     1     2     0
SMALL
GASTEIGER


@<TRIPOS>ATOM
      1 H1          7.429000    2.988000   -1.329000 H         1 MAIN        0.061767 
      2 C1          7.331000    2.354000   -0.448000 C.ar      1 MAIN       -0.061429 
      3 H2          5.296000    1.800000   -0.887000 H         1 MAIN        0.062101 
      4 C2          6.134000    1.686000   -0.198000 C.ar      1 MAIN       -0.056372 
      5 H3         -1.742000   -0.869000   -1.374000 H         1 MAIN        0.059493 
      6 C3         -1.384000   -0.230000   -2.182000 C.3       1 MAIN        0.100870 
      7 C4          6.001000    0.873000    0.926000 C.ar      1 MAIN       -0.021282 
      8 H6          0.099000    0.014000   -0.612000 H         1 MAIN        0.151047 
      9 N6         -0.167000    0.350000   -1.615000 N.am      1 MAIN       -0.286923 
     10 H7          2.515000    2.341000   -1.488000 H         1 MAIN        0.174447 
     11 N7          1.666000    1.698000   -1.253000 N.am      1 MAIN       -0.216446 
     12 H8          0.362000    1.200000    0.459000 H         1 MAIN        0.175168 
     13 N8          1.382000    1.157000    0.078000 N.am      1 MAIN       -0.208824 
     14 C9          0.694000    1.277000   -2.197000 C.2       1 MAIN        0.316595 
     15 O10         0.653000    1.687000   -3.365000 O.2       1 MAIN       -0.251268 
     16 H11         6.979000    0.100000    2.685000 H         1 MAIN        0.062101 
     17 C11         7.076000    0.734000    1.803000 C.ar      1 MAIN       -0.056372 
     18 H122       -3.412000    0.182000   -2.759000 H         1 MAIN        0.029029 
     19 H121       -2.864000    1.065000   -1.314000 H         1 MAIN        0.029029 
     20 C12        -2.586000    0.737000   -2.316000 C.3       1 MAIN       -0.023586 
     21 C13        -1.206000   -1.295000   -3.222000 C.2       1 MAIN        0.230881 
     22 O14        -0.359000   -1.278000   -4.114000 O.2       1 MAIN       -0.273995 
     23 H15        -1.363000    2.382000   -2.917000 H         1 MAIN        0.029618 
     24 C15        -2.348000    1.990000   -3.172000 C.3       1 MAIN       -0.044590 
     25 H163       -2.177000    2.580000   -5.237000 H         1 MAIN        0.023234 
     26 H162       -1.556000    0.949000   -4.884000 H         1 MAIN        0.023234 
     27 H161       -3.311000    1.239000   -4.947000 H         1 MAIN        0.023234 
     28 C16        -2.348000    1.666000   -4.668000 C.3       1 MAIN       -0.062595 
     29 H173       -3.237000    3.930000   -3.479000 H         1 MAIN        0.023234 
     30 H172       -4.401000    2.641000   -3.092000 H         1 MAIN        0.023234 
     31 H171       -3.365000    3.318000   -1.813000 H         1 MAIN        0.023234 
     32 C17        -3.415000    3.046000   -2.867000 C.3       1 MAIN       -0.062595 
     33 H182       -2.108000   -3.149000   -3.834000 H         1 MAIN        0.144987 
     34 H181       -2.902000   -2.292000   -2.351000 H         1 MAIN        0.144987 
     35 N18        -2.139000   -2.319000   -3.129000 N.am      1 MAIN       -0.327796 
     36 H20         9.112000    1.290000    2.247000 H         1 MAIN        0.061767 
     37 C20         8.275000    1.401000    1.558000 C.ar      1 MAIN       -0.061429 
     38 H21         9.340000    2.732000    0.237000 H         1 MAIN        0.061758 
     39 C21         8.403000    2.211000    0.431000 C.ar      1 MAIN       -0.061740 
     40 H222        4.853000   -0.916000    0.919000 H         1 MAIN        0.061655 
     41 H221        4.468000    0.212000    2.242000 H         1 MAIN        0.061655 
     42 C22         4.720000    0.133000    1.184000 C.3       1 MAIN        0.083699 
     43 O23         3.659000    0.680000    0.410000 O.3       1 MAIN       -0.294073 
     44 C24         2.392000    0.580000    0.885000 C.2       1 MAIN        0.369003 
     45 O25         2.117000    0.008000    1.944000 O.2       1 MAIN       -0.239748 
@<TRIPOS>BOND
     1    2   39 ar   
     2    4    2 ar   
     3    7    4 ar   
     4    9    6 1    
     5    6   20 1    
     6    6   21 1    
     7   42    7 1    
     8    7   17 ar   
     9   14    9 am   
    10   13   11 1    
    11   11   14 am   
    12   44   13 am   
    13   14   15 2    
    14   17   37 ar   
    15   20   24 1    
    16   21   35 am   
    17   21   22 2    
    18   24   32 1    
    19   24   28 1    
    20   37   39 ar   
    21   43   42 1    
    22   43   44 1    
    23   44   45 2    
    24   42   40 1    
    25   42   41 1    
    26   39   38 1    
    27   37   36 1    
    28   35   33 1    
    29   35   34 1    
    30   32   29 1    
    31   32   30 1    
    32   32   31 1    
    33   28   25 1    
    34   28   26 1    
    35   28   27 1    
    36   24   23 1    
    37   20   18 1    
    38   20   19 1    
    39   17   16 1    
    40   13   12 1    
    41   11   10 1    
    42    9    8 1    
    43    6    5 1    
    44    4    3 1    
    45    2    1 1    
@<TRIPOS>SUBSTRUCTURE
     1 MAIN        1 PERM              0 ****  ****    0 ROOT 
@<TRIPOS>NORMAL
@<TRIPOS>ALT_TYPE
MMFF94_ALT_TYPE_SET 
MMFF94 1 HC 2 CB 3 HC 4 CB 5 HC 6 CR 7 CB 8 HNCO 9 NC=O 10 HNCO 11 NC=O \
12 HNCO 13 NC=O 14 CONN 15 O=CN 16 HC 17 CB 18 HC 19 HC \
20 CR 21 C=ON 22 O=CN 23 HC 24 CR 25 HC 26 HC 27 HC 28 CR \
29 HC 30 HC 31 HC 32 CR 33 HNCO 34 HNCO 35 NC=O 36 HC \
37 CB 38 HC 39 CB 40 HC 41 HC 42 CR 43 OC=O 44 COO 45 O=CN \

@<TRIPOS>FF_PBC
FORCE_FIELD_SETUP_FEATURE Force Field Setup information
v1.0  0 0.000000 0.000000 0.000000 0.000000 0.000000 0.000000 NONE 0 0 0 0 0 0 0 0 0 0 0 0 0
