#	Name:			z_nh_glnhoh_min
#	Creating user name:	jeff
#	Creation time:		Thu Dec 19 11:49:56 2002

#	Modifying user name:	jeff
#	Modification time:	Thu Dec 19 11:49:56 2002

@<TRIPOS>MOLECULE
z_nh_glnhoh_min
   46    46     1     2     0
SMALL
GASTEIGER


@<TRIPOS>ATOM
      1 H1          9.197000    1.277000    2.249000 H         1 MAIN        0.061767 
      2 C1          8.361000    1.402000    1.561000 C.ar      1 MAIN       -0.061429 
      3 H2          7.035000    0.146000    2.706000 H         1 MAIN        0.062101 
      4 C2          7.146000    0.768000    1.818000 C.ar      1 MAIN       -0.056372 
      5 H3         -1.615000   -0.787000   -1.460000 H         1 MAIN        0.059568 
      6 C3         -1.281000   -0.043000   -2.184000 C.3       1 MAIN        0.103046 
      7 C4          6.072000    0.925000    0.943000 C.ar      1 MAIN       -0.021282 
      8 H5         -2.417000   -3.467000   -4.875000 H         1 MAIN        0.241381 
      9 O5         -1.725000   -2.664000   -4.622000 O.3       1 MAIN       -0.295136 
     10 H6         -0.003000    0.334000   -0.449000 H         1 MAIN        0.151048 
     11 N6         -0.158000    0.582000   -1.499000 N.am      1 MAIN       -0.286847 
     12 H7          2.584000    2.508000   -1.422000 H         1 MAIN        0.174447 
     13 N7          1.728000    1.882000   -1.170000 N.am      1 MAIN       -0.216446 
     14 H8          0.432000    1.417000    0.557000 H         1 MAIN        0.175168 
     15 N8          1.447000    1.347000    0.164000 N.am      1 MAIN       -0.208824 
     16 C9          0.727000    1.471000   -2.090000 C.2       1 MAIN        0.316595 
     17 O10         0.668000    1.835000   -3.272000 O.2       1 MAIN       -0.251268 
     18 H11         5.385000    1.848000   -0.880000 H         1 MAIN        0.062101 
     19 C11         6.221000    1.721000   -0.192000 C.ar      1 MAIN       -0.056372 
     20 H122       -3.326000    0.241000   -2.784000 H         1 MAIN        0.029030 
     21 H121       -2.851000    1.153000   -1.331000 H         1 MAIN        0.029030 
     22 C12        -2.540000    0.844000   -2.329000 C.3       1 MAIN       -0.023510 
     23 C13        -0.947000   -0.949000   -3.332000 C.2       1 MAIN        0.255805 
     24 O14        -0.045000   -0.979000   -4.170000 O.2       1 MAIN       -0.271690 
     25 H15        -1.386000    2.539000   -2.931000 H         1 MAIN        0.029618 
     26 C15        -2.355000    2.108000   -3.183000 C.3       1 MAIN       -0.044589 
     27 H163       -2.215000    2.702000   -5.251000 H         1 MAIN        0.023234 
     28 H162       -1.529000    1.098000   -4.899000 H         1 MAIN        0.023234 
     29 H161       -3.294000    1.318000   -4.955000 H         1 MAIN        0.023234 
     30 C16        -2.348000    1.783000   -4.680000 C.3       1 MAIN       -0.062595 
     31 H173       -3.320000    4.011000   -3.483000 H         1 MAIN        0.023234 
     32 H172       -4.431000    2.677000   -3.094000 H         1 MAIN        0.023234 
     33 H171       -3.418000    3.391000   -1.817000 H         1 MAIN        0.023234 
     34 C17        -3.461000    3.120000   -2.872000 C.3       1 MAIN       -0.062595 
     35 H18        -2.751000   -2.059000   -2.777000 H         1 MAIN        0.182254 
     36 N18        -1.927000   -1.911000   -3.475000 N.am      1 MAIN       -0.195957 
     37 H20         7.546000    2.977000   -1.341000 H         1 MAIN        0.061767 
     38 C20         7.434000    2.356000   -0.453000 C.ar      1 MAIN       -0.061429 
     39 H21         9.455000    2.691000    0.223000 H         1 MAIN        0.061758 
     40 C21         8.505000    2.196000    0.425000 C.ar      1 MAIN       -0.061740 
     41 H222        4.862000   -0.822000    0.927000 H         1 MAIN        0.061655 
     42 H221        4.546000    0.291000    2.280000 H         1 MAIN        0.061655 
     43 C22         4.772000    0.225000    1.216000 C.3       1 MAIN        0.083699 
     44 O23         3.714000    0.824000    0.476000 O.3       1 MAIN       -0.294073 
     45 C24         2.449000    0.744000    0.961000 C.2       1 MAIN        0.369003 
     46 O25         2.168000    0.161000    2.014000 O.2       1 MAIN       -0.239748 
@<TRIPOS>BOND
     1    2   40 ar   
     2    4    2 ar   
     3    7    4 ar   
     4   11    6 1    
     5    6   22 1    
     6    6   23 1    
     7   43    7 1    
     8    7   19 ar   
     9   36    9 1    
    10   16   11 am   
    11   15   13 1    
    12   13   16 am   
    13   45   15 am   
    14   16   17 2    
    15   19   38 ar   
    16   22   26 1    
    17   23   36 am   
    18   23   24 2    
    19   26   30 1    
    20   26   34 1    
    21   38   40 ar   
    22   44   43 1    
    23   44   45 1    
    24   45   46 2    
    25   43   41 1    
    26   43   42 1    
    27   40   39 1    
    28   38   37 1    
    29   36   35 1    
    30   34   31 1    
    31   34   32 1    
    32   34   33 1    
    33   30   27 1    
    34   30   28 1    
    35   30   29 1    
    36   26   25 1    
    37   22   20 1    
    38   22   21 1    
    39   19   18 1    
    40   15   14 1    
    41   13   12 1    
    42   11   10 1    
    43    9    8 1    
    44    6    5 1    
    45    4    3 1    
    46    2    1 1    
@<TRIPOS>SUBSTRUCTURE
     1 MAIN        1 PERM              0 ****  ****    0 ROOT 
@<TRIPOS>NORMAL
@<TRIPOS>ALT_TYPE
MMFF94_ALT_TYPE_SET 
MMFF94 1 HC 2 CB 3 HC 4 CB 5 HC 6 CR 7 CB 8 HO 9 -O- 10 HNCO 11 NC=O \
12 HNCO 13 NC=O 14 HNCO 15 NC=O 16 CONN 17 O=CN 18 HC \
19 CB 20 HC 21 HC 22 CR 23 C=ON 24 O=CN 25 HC 26 CR 27 HC \
28 HC 29 HC 30 CR 31 HC 32 HC 33 HC 34 CR 35 HNCO 36 NC=O \
37 HC 38 CB 39 HC 40 CB 41 HC 42 HC 43 CR 44 OC=O 45 COO \
46 O=CN 
@<TRIPOS>FF_PBC
FORCE_FIELD_SETUP_FEATURE Force Field Setup information
v1.0  0 0.000000 0.000000 0.000000 0.000000 0.000000 0.000000 NONE 0 0 0 0 0 0 0 0 0 0 0 0 0
