#	Name:			zala_min
#	Creating user name:	jeff
#	Creation time:		Thu Dec 19 11:49:53 2002

#	Modifying user name:	jeff
#	Modification time:	Thu Dec 19 11:49:53 2002

@<TRIPOS>MOLECULE
zala_min
   80    81     1     2     0
SMALL
GASTEIGER


@<TRIPOS>ATOM
      1 H1          2.399000  -12.186000   -8.074000 H         1 MAIN        0.061767 
      2 C1          1.976000  -11.703000   -7.193000 C.ar      1 MAIN       -0.061429 
      3 H2          1.201000  -10.026000   -8.302000 H         1 MAIN        0.062101 
      4 C2          1.304000  -10.489000   -7.320000 C.ar      1 MAIN       -0.056372 
      5 C3          0.762000   -9.863000   -6.199000 C.ar      1 MAIN       -0.021282 
      6 H4          0.465000   -9.985000   -4.068000 H         1 MAIN        0.062101 
      7 C4          0.891000  -10.466000   -4.948000 C.ar      1 MAIN       -0.056372 
      8 H5          1.661000  -12.146000   -3.837000 H         1 MAIN        0.061767 
      9 C5          1.563000  -11.680000   -4.818000 C.ar      1 MAIN       -0.061429 
     10 H6          2.635000  -13.247000   -5.840000 H         1 MAIN        0.061758 
     11 C6          2.107000  -12.299000   -5.941000 C.ar      1 MAIN       -0.061740 
     12 H72         0.336000   -8.062000   -7.255000 H         1 MAIN        0.061655 
     13 H71        -1.029000   -8.714000   -6.316000 H         1 MAIN        0.061655 
     14 C7          0.048000   -8.548000   -6.322000 C.3       1 MAIN        0.083653 
     15 O8          0.412272   -7.717822   -5.216102 O.3       1 MAIN       -0.295140 
     16 C9         -0.515916   -7.187850   -4.424586 C.2       1 MAIN        0.353123 
     17 O10        -1.715916   -7.201850   -4.716586 O.2       1 MAIN       -0.241338 
     18 H12        -1.761916   -5.672850   -2.669586 H         1 MAIN        0.059235 
     19 C12        -0.861916   -6.067850   -2.199586 C.3       1 MAIN        0.098682 
     20 H13         1.077084   -6.658850   -3.091586 H         1 MAIN        0.151713 
     21 N13        -0.001916   -6.649850   -3.245586 N.am      1 MAIN       -0.280327 
     22 C14        -0.148916   -4.939850   -1.507586 C.2       1 MAIN        0.233165 
     23 O15         1.043084   -4.691850   -1.700586 O.2       1 MAIN       -0.273789 
     24 H163       -1.912916   -6.694850   -0.424586 H         1 MAIN        0.025219 
     25 H162       -1.828916   -7.929850   -1.703586 H         1 MAIN        0.025219 
     26 H161       -0.389916   -7.565850   -0.722586 H         1 MAIN        0.025219 
     27 C16        -1.278916   -7.142850   -1.189586 C.3       1 MAIN       -0.038003 
     28 H24        -1.939916   -4.481850   -0.440586 H         1 MAIN        0.148733 
     29 N24        -0.919916   -4.159850   -0.649586 N.am      1 MAIN       -0.313728 
     30 H262       -1.230916   -2.499850    0.607414 H         1 MAIN        0.046248 
     31 H261        0.422084   -3.158850    0.627414 H         1 MAIN        0.046248 
     32 C26        -0.433916   -2.919850   -0.004586 C.3       1 MAIN        0.013402 
     33 H272        0.147084   -0.922850   -0.569586 H         1 MAIN        0.029894 
     34 H271        0.921084   -2.209850   -1.524586 H         1 MAIN        0.029894 
     35 C27        -0.008916   -1.884850   -1.056586 C.3       1 MAIN       -0.016647 
     36 H28        -1.798916   -2.547850   -1.989586 H         1 MAIN        0.052238 
     37 C28        -1.087916   -1.734850   -2.134586 C.3       1 MAIN        0.049311 
     38 C29        -0.554916   -1.982850   -3.508586 C.2       1 MAIN        0.058714 
     39 O30        -0.058916   -1.135850   -4.212586 O.co2     1 MAIN       -0.548201 
     40 O31        -0.510916   -3.165850   -4.149586 O.co2     1 MAIN       -0.548201 
     41 H32        -1.835916    0.489150   -3.749586 H         1 MAIN        0.055651 
     42 C32        -1.768916    0.727150   -2.687586 C.3       1 MAIN        0.085459 
     43 H33        -2.991916   -0.885850   -2.215586 H         1 MAIN        0.123250 
     44 N33        -1.988916   -0.550850   -1.951586 N.3       1 MAIN       -0.297743 
     45 H342       -3.829916    1.275150   -2.401586 H         1 MAIN        0.028744 
     46 H341       -2.706916    1.997150   -1.225586 H         1 MAIN        0.028744 
     47 C34        -2.850916    1.736150   -2.273586 C.3       1 MAIN       -0.026674 
     48 C35        -0.397916    1.329150   -2.503586 C.2       1 MAIN        0.230579 
     49 O36         0.171084    1.850150   -3.467586 O.2       1 MAIN       -0.274085 
     50 H37        -1.758916    3.365150   -3.137586 H         1 MAIN        0.029608 
     51 C37        -2.790916    3.017150   -3.116586 C.3       1 MAIN       -0.044858 
     52 H383       -3.170916    3.670150   -5.139586 H         1 MAIN        0.023234 
     53 H382       -2.557916    2.004150   -5.008586 H         1 MAIN        0.023234 
     54 H381       -4.244916    2.368150   -4.574586 H         1 MAIN        0.023234 
     55 C38        -3.222916    2.745150   -4.564586 C.3       1 MAIN       -0.062604 
     56 H393       -3.608916    5.011150   -3.094586 H         1 MAIN        0.023234 
     57 H392       -4.692916    3.765150   -2.433586 H         1 MAIN        0.023234 
     58 H391       -3.297916    4.326150   -1.481586 H         1 MAIN        0.023234 
     59 C39        -3.659916    4.108150   -2.486586 C.3       1 MAIN       -0.062604 
     60 H42         2.077084    1.598150   -2.041586 H         1 MAIN        0.056314 
     61 C42         1.584084    1.733150   -1.078586 C.3       1 MAIN        0.066584 
     62 H43        -0.384916    0.935150   -0.385586 H         1 MAIN        0.149382 
     63 N43         0.185084    1.290150   -1.244586 N.am      1 MAIN       -0.305743 
     64 C45         2.319084    0.873150   -0.084586 C.2       1 MAIN        0.062260 
     65 O46         3.533084    0.698150   -0.099586 O.co2     1 MAIN       -0.547888 
     66 H472        2.721084    3.556150   -0.948586 H         1 MAIN        0.033477 
     67 H471        1.019084    3.782150   -1.417586 H         1 MAIN        0.033477 
     68 C47         1.696084    3.235150   -0.761586 C.3       1 MAIN       -0.003914 
     69 C49         1.345084    3.550150    0.665414 C.ar      1 MAIN       -0.045254 
     70 H50         3.400084    3.862150    1.231414 H         1 MAIN        0.062030 
     71 C50         2.364084    3.847150    1.569414 C.ar      1 MAIN       -0.058503 
     72 H51        -0.781916    3.309150    0.399414 H         1 MAIN        0.062030 
     73 C51         0.021084    3.535150    1.101414 C.ar      1 MAIN       -0.058503 
     74 H52         2.867084    4.359150    3.603414 H         1 MAIN        0.061766 
     75 C52         2.066084    4.126150    2.901414 C.ar      1 MAIN       -0.061500 
     76 H53        -1.311916    3.794150    2.771414 H         1 MAIN        0.061766 
     77 C53        -0.275916    3.810150    2.433414 C.ar      1 MAIN       -0.061500 
     78 H54         0.505084    4.320150    4.376414 H         1 MAIN        0.061758 
     79 C54         0.743084    4.106150    3.335414 C.ar      1 MAIN       -0.061742 
     80 O56         1.578084    0.286150    0.880414 O.co2     1 MAIN       -0.547888 
@<TRIPOS>BOND
     1    2   11 ar   
     2    2    4 ar   
     3    4    5 ar   
     4    5   14 1    
     5    5    7 ar   
     6    7    9 ar   
     7    9   11 ar   
     8   14   15 1    
     9   15   16 1    
    10   16   17 2    
    11   16   21 am   
    12   21   19 1    
    13   19   22 1    
    14   19   27 1    
    15   22   23 2    
    16   22   29 am   
    17   29   32 1    
    18   32   35 1    
    19   35   37 1    
    20   37   38 1    
    21   37   44 1    
    22   38   39 ar   
    23   38   40 ar   
    24   44   42 1    
    25   42   47 1    
    26   42   48 1    
    27   47   51 1    
    28   48   49 2    
    29   48   63 am   
    30   51   55 1    
    31   51   59 1    
    32   63   61 1    
    33   61   64 1    
    34   61   68 1    
    35   64   65 ar   
    36   64   80 ar   
    37   68   69 1    
    38   69   71 ar   
    39   69   73 ar   
    40   71   75 ar   
    41   73   77 ar   
    42   75   79 ar   
    43   77   79 ar   
    44   79   78 1    
    45   77   76 1    
    46   75   74 1    
    47   73   72 1    
    48   71   70 1    
    49   68   66 1    
    50   68   67 1    
    51   63   62 1    
    52   61   60 1    
    53   59   56 1    
    54   59   57 1    
    55   59   58 1    
    56   55   52 1    
    57   55   53 1    
    58   55   54 1    
    59   51   50 1    
    60   47   45 1    
    61   47   46 1    
    62   44   43 1    
    63   42   41 1    
    64   37   36 1    
    65   35   33 1    
    66   35   34 1    
    67   32   30 1    
    68   32   31 1    
    69   29   28 1    
    70   27   24 1    
    71   27   25 1    
    72   27   26 1    
    73   21   20 1    
    74   19   18 1    
    75   14   12 1    
    76   14   13 1    
    77   11   10 1    
    78    9    8 1    
    79    7    6 1    
    80    4    3 1    
    81    2    1 1    
@<TRIPOS>SUBSTRUCTURE
     1 MAIN        1 PERM              0 ****  ****    0 ROOT 
@<TRIPOS>NORMAL
@<TRIPOS>ALT_TYPE
MMFF94_ALT_TYPE_SET 
MMFF94 1 HC 2 CB 3 HC 4 CB 5 CB 6 HC 7 CB 8 HC 9 CB 10 HC 11 CB 12 HC \
13 HC 14 CR 15 OC=O 16 COO 17 O=CN 18 HC 19 CR 20 HNCO \
21 NC=O 22 C=ON 23 O=CN 24 HC 25 HC 26 HC 27 CR 28 HNCO \
29 NC=O 30 HC 31 HC 32 CR 33 HC 34 HC 35 CR 36 HC 37 CR \
38 CO2M 39 O2CM 40 O2CM 41 HC 42 CR 43 HNR 44 NR 45 HC \
46 HC 47 CR 48 C=ON 49 O=CN 50 HC 51 CR 52 HC 53 HC 54 HC \
55 CR 56 HC 57 HC 58 HC 59 CR 60 HC 61 CR 62 HNCO 63 NC=O \
64 CO2M 65 O2CM 66 HC 67 HC 68 CR 69 CB 70 HC 71 CB \
72 HC 73 CB 74 HC 75 CB 76 HC 77 CB 78 HC 79 CB 80 O2CM
@<TRIPOS>FF_PBC
FORCE_FIELD_SETUP_FEATURE Force Field Setup information
v1.0  0 0.000000 0.000000 0.000000 0.000000 0.000000 0.000000 NONE 0 0 0 0 0 0 0 0 0 0 0 0 0
