#	Name:			ZAPOLA_min
#	Creating user name:	jeff
#	Creation time:		Thu Dec 19 11:49:53 2002

#	Modifying user name:	jeff
#	Modification time:	Thu Dec 19 11:49:53 2002

@<TRIPOS>MOLECULE
ZAPOLA_min
   57    57     1     2     0
SMALL
GASTEIGER


@<TRIPOS>ATOM
      1 C1         -1.215000   -5.285000   -3.680000 C.2       1 MAIN        0.353106 
      2 O2         -2.444000   -5.318000   -3.497000 O.2       1 MAIN       -0.241337 
      3 O3         -0.598509   -6.243114   -4.366190 O.3       1 MAIN       -0.295140 
      4 H42        -2.066381   -7.679781   -4.146568 H         1 MAIN        0.061655 
      5 H41        -1.946381   -6.947781   -5.764568 H         1 MAIN        0.061655 
      6 C4         -1.379381   -7.311781   -4.907568 C.3       1 MAIN        0.083653 
      7 C5         -0.479381   -8.425781   -5.345568 C.ar      1 MAIN       -0.021282 
      8 H6         -0.068381   -9.080781   -3.333568 H         1 MAIN        0.062101 
      9 C6          0.122619   -9.247781   -4.393568 C.ar      1 MAIN       -0.056372 
     10 H7         -0.694381   -7.993781   -7.446568 H         1 MAIN        0.062101 
     11 C7         -0.228381   -8.636781   -6.699568 C.ar      1 MAIN       -0.056372 
     12 H8          1.433619  -10.923781   -4.046568 H         1 MAIN        0.061767 
     13 C8          0.966619  -10.281781   -4.793568 C.ar      1 MAIN       -0.061429 
     14 H9          0.809619   -9.834781   -8.159568 H         1 MAIN        0.061767 
     15 C9          0.616619   -9.669781   -7.099568 C.ar      1 MAIN       -0.061429 
     16 H10         1.873619  -11.301781   -6.462568 H         1 MAIN        0.061758 
     17 C10         1.213619  -10.493781   -6.147568 C.ar      1 MAIN       -0.061740 
     18 H11         0.723000   -4.389000   -3.491000 H         1 MAIN        0.151694 
     19 N11        -0.332000   -4.291000   -3.237000 N.am      1 MAIN       -0.281499 
     20 H12        -1.669000   -3.375000   -1.913000 H         1 MAIN        0.058153 
     21 C12        -0.752000   -3.119000   -2.444000 C.3       1 MAIN        0.081854 
     22 P13        -1.097000   -1.715000   -3.541000 P.3       1 MAIN        0.141454 
     23 O14         0.107000   -1.175000   -4.179000 O.co2     1 MAIN       -0.529598 
     24 O15        -1.910000   -2.300000   -4.815000 O.co2     1 MAIN       -0.529598 
     25 H163       -0.043000   -1.887000   -0.824000 H         1 MAIN        0.025210 
     26 H162        0.440000   -3.597000   -0.713000 H         1 MAIN        0.025210 
     27 H161        1.241000   -2.520000   -1.882000 H         1 MAIN        0.025210 
     28 C16         0.297000   -2.754000   -1.390000 C.3       1 MAIN       -0.039107 
     29 O20        -1.921000   -0.556000   -2.687000 O.3       1 MAIN       -0.326957 
     30 H21        -1.737000    0.850000   -4.164000 H         1 MAIN        0.069697 
     31 C21        -1.779000    0.814000   -3.076000 C.3       1 MAIN        0.140382 
     32 C22        -0.511000    1.391000   -2.510000 C.2       1 MAIN        0.242810 
     33 O23         0.332000    2.004000   -3.172000 O.2       1 MAIN       -0.272943 
     34 H242       -3.896000    1.200000   -2.982000 H         1 MAIN        0.029754 
     35 H241       -3.001000    1.646000   -1.509000 H         1 MAIN        0.029754 
     36 C24        -2.977000    1.644000   -2.599000 C.3       1 MAIN       -0.015285 
     37 H25        -1.857000    3.444000   -2.895000 H         1 MAIN        0.029640 
     38 C25        -2.867000    3.091000   -3.104000 C.3       1 MAIN       -0.043905 
     39 H263       -3.003000    4.198000   -4.951000 H         1 MAIN        0.023234 
     40 H262       -2.334000    2.558000   -5.126000 H         1 MAIN        0.023234 
     41 H261       -4.079000    2.784000   -4.863000 H         1 MAIN        0.023234 
     42 C26        -3.087000    3.163000   -4.621000 C.3       1 MAIN       -0.062572 
     43 H273       -3.755000    5.019000   -2.739000 H         1 MAIN        0.023234 
     44 H272       -4.868000    3.646000   -2.532000 H         1 MAIN        0.023234 
     45 H271       -3.631000    3.982000   -1.298000 H         1 MAIN        0.023234 
     46 C27        -3.851000    4.000000   -2.365000 C.3       1 MAIN       -0.062572 
     47 H28        -1.097000    0.691000   -0.562000 H         1 MAIN        0.149392 
     48 N28        -0.348000    1.236000   -1.137000 N.am      1 MAIN       -0.305471 
     49 H29         1.359000    2.435000   -1.165000 H         1 MAIN        0.055714 
     50 C29         0.829000    1.802000   -0.453000 C.3       1 MAIN        0.059860 
     51 C30         1.778000    0.722000   -0.016000 C.2       1 MAIN        0.061677 
     52 O31         1.491000   -0.187000    0.756000 O.co2     1 MAIN       -0.547908 
     53 H323        1.281000    3.079000    1.224000 H         1 MAIN        0.025109 
     54 H322       -0.230000    3.488000    0.375000 H         1 MAIN        0.025109 
     55 H321       -0.165000    2.064000    1.442000 H         1 MAIN        0.025109 
     56 C32         0.398000    2.671000    0.732000 C.3       1 MAIN       -0.041338 
     57 O33         3.032000    0.793000   -0.510000 O.co2     1 MAIN       -0.547908 
@<TRIPOS>BOND
     1    1    2 2    
     2    1    3 1    
     3    1   19 am   
     4    3    6 1    
     5    6    7 1    
     6    7    9 ar   
     7    7   11 ar   
     8    9   13 ar   
     9   11   15 ar   
    10   13   17 ar   
    11   15   17 ar   
    12   19   21 1    
    13   21   22 1    
    14   21   28 1    
    15   22   23 ar   
    16   22   24 ar   
    17   22   29 1    
    18   29   31 1    
    19   31   32 1    
    20   31   36 1    
    21   32   33 2    
    22   32   48 am   
    23   36   38 1    
    24   38   42 1    
    25   38   46 1    
    26   48   50 1    
    27   50   51 1    
    28   50   56 1    
    29   51   52 ar   
    30   51   57 ar   
    31   56   53 1    
    32   56   54 1    
    33   56   55 1    
    34   50   49 1    
    35   48   47 1    
    36   46   43 1    
    37   46   44 1    
    38   46   45 1    
    39   42   39 1    
    40   42   40 1    
    41   42   41 1    
    42   38   37 1    
    43   36   34 1    
    44   36   35 1    
    45   31   30 1    
    46   28   25 1    
    47   28   26 1    
    48   28   27 1    
    49   21   20 1    
    50   19   18 1    
    51   17   16 1    
    52   15   14 1    
    53   13   12 1    
    54   11   10 1    
    55    9    8 1    
    56    6    4 1    
    57    6    5 1    
@<TRIPOS>SUBSTRUCTURE
     1 MAIN        1 PERM              0 ****  ****    0 ROOT 
@<TRIPOS>NORMAL
@<TRIPOS>ALT_TYPE
MMFF94_ALT_TYPE_SET 
MMFF94 1 COO 2 O=CN 3 OC=O 4 HC 5 HC 6 CR 7 CB 8 HC 9 CB 10 HC 11 CB \
12 HC 13 CB 14 HC 15 CB 16 HC 17 CB 18 HNCO 19 NC=O 20 HC \
21 CR 22 PO3 23 O2P 24 O2P 25 HC 26 HC 27 HC 28 CR 29 OPO2 \
30 HC 31 CR 32 C=ON 33 O=CN 34 HC 35 HC 36 CR 37 HC \
38 CR 39 HC 40 HC 41 HC 42 CR 43 HC 44 HC 45 HC 46 CR \
47 HNCO 48 NC=O 49 HC 50 CR 51 CO2M 52 O2CM 53 HC 54 HC \
55 HC 56 CR 57 O2CM 
@<TRIPOS>FF_PBC
FORCE_FIELD_SETUP_FEATURE Force Field Setup information
v1.0  0 0.000000 0.000000 0.000000 0.000000 0.000000 0.000000 NONE 0 0 0 0 0 0 0 0 0 0 0 0 0
