#	Name:			zfgnh2_min
#	Creating user name:	jeff
#	Creation time:		Thu Dec 19 11:49:53 2002

#	Modifying user name:	jeff
#	Modification time:	Thu Dec 19 11:49:53 2002

@<TRIPOS>MOLECULE
zfgnh2_min
   47    48     1     2     0
SMALL
GASTEIGER


@<TRIPOS>ATOM
      1 H1          9.142000    1.313000    2.269000 H         1 MAIN        0.061767 
      2 C1          8.283000    1.401000    1.604000 C.ar      1 MAIN       -0.061429 
      3 H2          7.125000   -0.081000    2.656000 H         1 MAIN        0.062101 
      4 C2          7.150000    0.619000    1.821000 C.ar      1 MAIN       -0.056372 
      5 H32        -2.408000    0.065000   -2.385000 H         1 MAIN        0.055765 
      6 H31        -1.330000    0.567000   -3.710000 H         1 MAIN        0.055765 
      7 C3         -1.397000   -0.007000   -2.786000 C.3       1 MAIN        0.087945 
      8 C4          6.048000    0.728000    0.974000 C.ar      1 MAIN       -0.021282 
      9 H6         -0.632000    0.388000   -0.747000 H         1 MAIN        0.149242 
     10 N6         -0.452000    0.537000   -1.812000 N.am      1 MAIN       -0.305190 
     11 H7          2.702000    0.943000   -1.711000 H         1 MAIN        0.059842 
     12 C7          1.797000    1.337000   -1.247000 C.3       1 MAIN        0.105422 
     13 H8          0.463000    0.294000    0.185000 H         1 MAIN        0.151735 
     14 N8          1.502000    0.503000   -0.069000 N.am      1 MAIN       -0.279737 
     15 C9          0.676000    1.243000   -2.228000 C.2       1 MAIN        0.234143 
     16 O10         0.776000    1.738000   -3.354000 O.2       1 MAIN       -0.273757 
     17 H11         5.223000    1.723000   -0.750000 H         1 MAIN        0.062101 
     18 C11         6.084000    1.630000   -0.089000 C.ar      1 MAIN       -0.056372 
     19 C13        -1.078000   -1.450000   -3.073000 C.2       1 MAIN        0.227661 
     20 O14        -0.488000   -1.753000   -4.101000 O.2       1 MAIN       -0.274312 
     21 C17         1.484000    3.216000    0.390000 C.ar      1 MAIN       -0.045140 
     22 H182       -1.274000   -3.496000   -2.434000 H         1 MAIN        0.144978 
     23 H181       -2.087000   -2.202000   -1.326000 H         1 MAIN        0.144978 
     24 N18        -1.511000   -2.455000   -2.216000 N.am      1 MAIN       -0.328034 
     25 H20         7.240000    3.114000   -1.143000 H         1 MAIN        0.061767 
     26 C20         7.216000    2.412000   -0.309000 C.ar      1 MAIN       -0.061429 
     27 H21         9.204000    2.906000    0.364000 H         1 MAIN        0.061758 
     28 C21         8.317000    2.297000    0.537000 C.ar      1 MAIN       -0.061740 
     29 H222        5.110000   -1.179000    0.989000 H         1 MAIN        0.061655 
     30 H221        4.519000   -0.048000    2.230000 H         1 MAIN        0.061655 
     31 C22         4.844000   -0.142000    1.194000 C.3       1 MAIN        0.083653 
     32 O23         3.780000    0.246000    0.334000 O.3       1 MAIN       -0.295140 
     33 C24         2.511000   -0.025000    0.727000 C.2       1 MAIN        0.353140 
     34 O25         2.267000   -0.681000    1.743000 O.2       1 MAIN       -0.241337 
     35 H34         3.364000    3.358000    1.434000 H         1 MAIN        0.062030 
     36 C34         2.280000    3.447000    1.510000 C.ar      1 MAIN       -0.058501 
     37 H35         2.319000    3.974000    3.601000 H         1 MAIN        0.061766 
     38 C35         1.696000    3.791000    2.726000 C.ar      1 MAIN       -0.061500 
     39 H36        -0.152000    4.163000    3.769000 H         1 MAIN        0.061758 
     40 C36         0.311000    3.900000    2.818000 C.ar      1 MAIN       -0.061742 
     41 H37        -1.568000    3.758000    1.774000 H         1 MAIN        0.061766 
     42 C37        -0.484000    3.672000    1.697000 C.ar      1 MAIN       -0.061500 
     43 H38        -0.525000    3.171000   -0.398000 H         1 MAIN        0.062030 
     44 C38         0.098000    3.338000    0.480000 C.ar      1 MAIN       -0.058501 
     45 H412        3.219000    2.889000   -0.784000 H         1 MAIN        0.033589 
     46 H411        1.795000    3.445000   -1.695000 H         1 MAIN        0.033589 
     47 C41         2.139000    2.795000   -0.891000 C.3       1 MAIN       -0.000585 
@<TRIPOS>BOND
     1    4    2 ar   
     2    2   28 ar   
     3    8    4 ar   
     4   10    7 1    
     5    7   19 1    
     6    8   18 ar   
     7   31    8 1    
     8   15   10 am   
     9   14   12 1    
    10   12   15 1    
    11   12   47 1    
    12   33   14 am   
    13   15   16 2    
    14   18   26 ar   
    15   19   20 2    
    16   19   24 am   
    17   21   36 ar   
    18   21   44 ar   
    19   47   21 1    
    20   26   28 ar   
    21   32   31 1    
    22   32   33 1    
    23   33   34 2    
    24   36   38 ar   
    25   38   40 ar   
    26   40   42 ar   
    27   42   44 ar   
    28   47   45 1    
    29   47   46 1    
    30   44   43 1    
    31   42   41 1    
    32   40   39 1    
    33   38   37 1    
    34   36   35 1    
    35   31   29 1    
    36   31   30 1    
    37   28   27 1    
    38   26   25 1    
    39   24   22 1    
    40   24   23 1    
    41   18   17 1    
    42   14   13 1    
    43   12   11 1    
    44   10    9 1    
    45    7    5 1    
    46    7    6 1    
    47    4    3 1    
    48    2    1 1    
@<TRIPOS>SUBSTRUCTURE
     1 MAIN        1 PERM              0 ****  ****    0 ROOT 
@<TRIPOS>NORMAL
@<TRIPOS>ALT_TYPE
MMFF94_ALT_TYPE_SET 
MMFF94 1 HC 2 CB 3 HC 4 CB 5 HC 6 HC 7 CR 8 CB 9 HNCO 10 NC=O 11 HC \
12 CR 13 HNCO 14 NC=O 15 C=ON 16 O=CN 17 HC 18 CB 19 C=ON \
20 O=CN 21 CB 22 HNCO 23 HNCO 24 NC=O 25 HC 26 CB 27 HC \
28 CB 29 HC 30 HC 31 CR 32 OC=O 33 COO 34 O=CN 35 HC \
36 CB 37 HC 38 CB 39 HC 40 CB 41 HC 42 CB 43 HC 44 CB \
45 HC 46 HC 47 CR 
@<TRIPOS>FF_PBC
FORCE_FIELD_SETUP_FEATURE Force Field Setup information
v1.0  0 0.000000 0.000000 0.000000 0.000000 0.000000 0.000000 NONE 0 0 0 0 0 0 0 0 0 0 0 0 0
