#	Name:			zfplazncrys_min
#	Creating user name:	jeff
#	Creation time:		Thu Dec 19 11:49:53 2002

#	Modifying user name:	jeff
#	Modification time:	Thu Dec 19 11:49:53 2002

@<TRIPOS>MOLECULE
zfplazncrys_min
   68    69     1     2     0
SMALL
GASTEIGER


@<TRIPOS>ATOM
      1 C1         -1.178000   -5.216000   -3.619000 C.2       1 MAIN        0.353103 
      2 O2         -2.407000   -5.242000   -3.433000 O.2       1 MAIN       -0.241337 
      3 O3         -0.571539   -6.198310   -4.279434 O.3       1 MAIN       -0.295140 
      4 H42        -1.909678   -7.704085   -3.826555 H         1 MAIN        0.061655 
      5 H41        -2.081678   -6.985085   -5.445555 H         1 MAIN        0.061655 
      6 C4         -1.369678   -7.312085   -4.688555 C.3       1 MAIN        0.083653 
      7 C5         -0.500678   -8.391085   -5.259555 C.ar      1 MAIN       -0.021282 
      8 H6          0.067322   -9.167085   -3.328555 H         1 MAIN        0.062101 
      9 C6          0.171322   -9.269085   -4.408555 C.ar      1 MAIN       -0.056372 
     10 H7         -0.877678   -7.826085   -7.304555 H         1 MAIN        0.062101 
     11 C7         -0.358678   -8.515085   -6.638555 C.ar      1 MAIN       -0.056372 
     12 H8          1.493322  -10.964085   -4.272555 H         1 MAIN        0.061767 
     13 C8          0.974322  -10.274085   -4.937555 C.ar      1 MAIN       -0.061429 
     14 H9          0.556322   -9.619085   -8.246555 H         1 MAIN        0.061767 
     15 C9          0.447322   -9.520085   -7.166555 C.ar      1 MAIN       -0.061429 
     16 H10         1.746322  -11.183085   -6.734555 H         1 MAIN        0.061758 
     17 C10         1.114322  -10.398085   -6.318555 C.ar      1 MAIN       -0.061740 
     18 H11         0.758000   -4.318000   -3.480000 H         1 MAIN        0.151690 
     19 N11        -0.291000   -4.216000   -3.203000 N.am      1 MAIN       -0.281607 
     20 H12        -1.606000   -3.248000   -1.870000 H         1 MAIN        0.058041 
     21 C12        -0.686000   -3.030000   -2.412000 C.3       1 MAIN        0.080503 
     22 P13        -1.048000   -1.639000   -3.526000 P.3       1 MAIN        0.092631 
     23 O14         0.133000   -1.069000   -4.193000 O.co2     1 MAIN       -0.536114 
     24 O15        -1.707000   -2.210000   -4.654000 O.co2     1 MAIN       -0.536114 
     25 H162        1.344000   -2.824000   -1.716000 H         1 MAIN        0.033556 
     26 H161        0.196000   -1.676000   -0.985000 H         1 MAIN        0.033556 
     27 C16         0.338000   -2.706000   -1.313000 C.3       1 MAIN       -0.002367 
     28 C17         0.168000   -3.630000   -0.130000 C.ar      1 MAIN       -0.045175 
     29 H18        -0.492000   -2.046000    1.167000 H         1 MAIN        0.062030 
     30 C18        -0.289000   -3.114000    1.081000 C.ar      1 MAIN       -0.058501 
     31 H19         0.806000   -5.423000   -1.135000 H         1 MAIN        0.062030 
     32 C19         0.433000   -4.998000   -0.203000 C.ar      1 MAIN       -0.058501 
     33 H20        -0.852000   -3.513000    3.119000 H         1 MAIN        0.061766 
     34 C20        -0.491000   -3.940000    2.183000 C.ar      1 MAIN       -0.061500 
     35 H21         0.432000   -6.899000    0.818000 H         1 MAIN        0.061766 
     36 C21         0.228000   -5.831000    0.899000 C.ar      1 MAIN       -0.061500 
     37 H22        -0.399000   -5.948000    2.965000 H         1 MAIN        0.061758 
     38 C22        -0.237000   -5.302000    2.102000 C.ar      1 MAIN       -0.061742 
     39 H23        -3.037000   -0.719000   -2.861000 H         1 MAIN        0.146681 
     40 N23        -1.990000   -0.470000   -2.690000 N.am      1 MAIN       -0.326446 
     41 H24        -1.788000    1.032000   -4.127000 H         1 MAIN        0.059344 
     42 C24        -1.817000    0.953000   -3.040000 C.3       1 MAIN        0.097535 
     43 C25        -0.525000    1.473000   -2.476000 C.2       1 MAIN        0.233743 
     44 O26         0.330000    2.061000   -3.142000 O.2       1 MAIN       -0.273767 
     45 H272       -3.922000    1.403000   -2.950000 H         1 MAIN        0.029026 
     46 H271       -3.033000    1.742000   -1.446000 H         1 MAIN        0.029026 
     47 C27        -2.995000    1.797000   -2.534000 C.3       1 MAIN       -0.023732 
     48 H28        -1.841000    3.602000   -2.668000 H         1 MAIN        0.029618 
     49 C28        -2.836000    3.266000   -2.960000 C.3       1 MAIN       -0.044593 
     50 H293       -2.833000    4.458000   -4.758000 H         1 MAIN        0.023234 
     51 H292       -2.168000    2.820000   -4.963000 H         1 MAIN        0.023234 
     52 H291       -3.926000    3.054000   -4.810000 H         1 MAIN        0.023234 
     53 C29        -2.949000    3.410000   -4.483000 C.3       1 MAIN       -0.062595 
     54 H303       -3.737000    5.180000   -2.561000 H         1 MAIN        0.023234 
     55 H302       -4.869000    3.808000   -2.503000 H         1 MAIN        0.023234 
     56 H301       -3.720000    4.070000   -1.169000 H         1 MAIN        0.023234 
     57 C30        -3.864000    4.144000   -2.247000 C.3       1 MAIN       -0.062595 
     58 H31        -1.083000    0.731000   -0.532000 H         1 MAIN        0.149370 
     59 N31        -0.338000    1.284000   -1.105000 N.am      1 MAIN       -0.306088 
     60 H32         1.365000    2.478000   -1.123000 H         1 MAIN        0.055714 
     61 C32         0.852000    1.821000   -0.421000 C.3       1 MAIN        0.059838 
     62 C33         1.820000    0.736000   -0.046000 C.2       1 MAIN        0.061677 
     63 O34         1.465000   -0.176000    0.767000 O.co2     1 MAIN       -0.547908 
     64 H353        1.341000    3.035000    1.293000 H         1 MAIN        0.025109 
     65 H352       -0.183000    3.481000    0.488000 H         1 MAIN        0.025109 
     66 H351       -0.106000    2.020000    1.501000 H         1 MAIN        0.025109 
     67 C35         0.447000    2.649000    0.804000 C.3       1 MAIN       -0.041338 
     68 O36         2.988000    0.791000   -0.541000 O.co2     1 MAIN       -0.547908 
@<TRIPOS>BOND
     1    1   19 am   
     2    1    2 2    
     3    1    3 1    
     4    3    6 1    
     5    6    7 1    
     6    7    9 ar   
     7    7   11 ar   
     8    9   13 ar   
     9   11   15 ar   
    10   13   17 ar   
    11   15   17 ar   
    12   19   21 1    
    13   21   22 1    
    14   21   27 1    
    15   22   23 ar   
    16   22   24 ar   
    17   22   40 1    
    18   27   28 1    
    19   28   30 ar   
    20   28   32 ar   
    21   30   34 ar   
    22   32   36 ar   
    23   34   38 ar   
    24   36   38 ar   
    25   40   42 1    
    26   42   43 1    
    27   42   47 1    
    28   43   44 2    
    29   43   59 am   
    30   47   49 1    
    31   49   53 1    
    32   49   57 1    
    33   59   61 1    
    34   61   62 1    
    35   61   67 1    
    36   62   63 ar   
    37   62   68 ar   
    38   67   64 1    
    39   67   65 1    
    40   67   66 1    
    41   61   60 1    
    42   59   58 1    
    43   57   54 1    
    44   57   55 1    
    45   57   56 1    
    46   53   50 1    
    47   53   51 1    
    48   53   52 1    
    49   49   48 1    
    50   47   45 1    
    51   47   46 1    
    52   42   41 1    
    53   40   39 1    
    54   38   37 1    
    55   36   35 1    
    56   34   33 1    
    57   32   31 1    
    58   30   29 1    
    59   27   25 1    
    60   27   26 1    
    61   21   20 1    
    62   19   18 1    
    63   17   16 1    
    64   15   14 1    
    65   13   12 1    
    66   11   10 1    
    67    9    8 1    
    68    6    4 1    
    69    6    5 1    
@<TRIPOS>SUBSTRUCTURE
     1 MAIN        1 PERM              0 ****  ****    0 ROOT 
@<TRIPOS>NORMAL
@<TRIPOS>ALT_TYPE
MMFF94_ALT_TYPE_SET 
MMFF94 1 COO 2 O=CN 3 OC=O 4 HC 5 HC 6 CR 7 CB 8 HC 9 CB 10 HC 11 CB \
12 HC 13 CB 14 HC 15 CB 16 HC 17 CB 18 HNCO 19 NC=O 20 HC \
21 CR 22 PO2 23 O2P 24 O2P 25 HC 26 HC 27 CR 28 CB 29 HC \
30 CB 31 HC 32 CB 33 HC 34 CB 35 HC 36 CB 37 HC 38 CB \
39 HNPO 40 NPO2 41 HC 42 CR 43 C=ON 44 O=CN 45 HC 46 HC \
47 CR 48 HC 49 CR 50 HC 51 HC 52 HC 53 CR 54 HC 55 HC \
56 HC 57 CR 58 HNCO 59 NC=O 60 HC 61 CR 62 CO2M 63 O2CM \
64 HC 65 HC 66 HC 67 CR 68 O2CM 
@<TRIPOS>FF_PBC
FORCE_FIELD_SETUP_FEATURE Force Field Setup information
v1.0  0 0.000000 0.000000 0.000000 0.000000 0.000000 0.000000 NONE 0 0 0 0 0 0 0 0 0 0 0 0 0
