#	Name:			zfpola_min
#	Creating user name:	jeff
#	Creation time:		Thu Dec 19 11:49:53 2002

#	Modifying user name:	jeff
#	Modification time:	Thu Dec 19 11:49:53 2002

@<TRIPOS>MOLECULE
zfpola_min
   67    68     1     2     0
SMALL
GASTEIGER


@<TRIPOS>ATOM
      1 C1         -1.193000   -5.249000   -3.630000 C.2       1 MAIN        0.353123 
      2 O2         -2.423000   -5.281000   -3.461000 O.2       1 MAIN       -0.241337 
      3 O3         -0.570453   -6.216207   -4.297716 O.3       1 MAIN       -0.295140 
      4 H42        -2.031527   -7.657077   -4.060158 H         1 MAIN        0.061655 
      5 H41        -1.942527   -6.913077   -5.675158 H         1 MAIN        0.061655 
      6 C4         -1.358527   -7.283077   -4.832158 C.3       1 MAIN        0.083653 
      7 C5         -0.467527   -8.392077   -5.294158 C.ar      1 MAIN       -0.021282 
      8 H6         -0.026527   -9.076077   -3.298158 H         1 MAIN        0.062101 
      9 C6          0.146473   -9.229077   -4.363158 C.ar      1 MAIN       -0.056372 
     10 H7         -0.714527   -7.930077   -7.385158 H         1 MAIN        0.062101 
     11 C7         -0.239527   -8.586077   -6.655158 C.ar      1 MAIN       -0.056372 
     12 H8          1.455473  -10.916077   -4.061158 H         1 MAIN        0.061767 
     13 C8          0.979473  -10.261077   -4.791158 C.ar      1 MAIN       -0.061429 
     14 H9          0.770473   -9.766077   -8.148158 H         1 MAIN        0.061767 
     15 C9          0.594473   -9.616077   -7.083158 C.ar      1 MAIN       -0.061429 
     16 H10         1.854473  -11.261077   -6.489158 H         1 MAIN        0.061758 
     17 C10         1.203473  -10.454077   -6.152158 C.ar      1 MAIN       -0.061740 
     18 H11         0.740000   -4.338000   -3.415000 H         1 MAIN        0.151715 
     19 N11        -0.323000   -4.244000   -3.190000 N.am      1 MAIN       -0.280912 
     20 H12        -1.715000   -3.336000   -1.942000 H         1 MAIN        0.058757 
     21 C12        -0.782000   -3.063000   -2.435000 C.3       1 MAIN        0.088592 
     22 P13        -1.104000   -1.681000   -3.555000 P.3       1 MAIN        0.142045 
     23 O14         0.109000   -1.156000   -4.186000 O.co2     1 MAIN       -0.529587 
     24 O15        -1.916000   -2.284000   -4.821000 O.co2     1 MAIN       -0.529587 
     25 H162        1.212000   -2.695000   -1.710000 H         1 MAIN        0.033579 
     26 H161       -0.036000   -1.651000   -0.990000 H         1 MAIN        0.033579 
     27 C16         0.193000   -2.663000   -1.326000 C.3       1 MAIN       -0.001690 
     28 C17         0.064000   -3.611000   -0.174000 C.ar      1 MAIN       -0.045152 
     29 H18        -0.414000   -2.051000    1.235000 H         1 MAIN        0.062030 
     30 C18        -0.268000   -3.121000    1.088000 C.ar      1 MAIN       -0.058501 
     31 H19         0.512000   -5.362000   -1.349000 H         1 MAIN        0.062030 
     32 C19         0.252000   -4.978000   -0.363000 C.ar      1 MAIN       -0.058501 
     33 H20        -0.671000   -3.613000    3.149000 H         1 MAIN        0.061766 
     34 C20        -0.412000   -3.997000    2.162000 C.ar      1 MAIN       -0.061500 
     35 H21         0.256000   -6.926000    0.563000 H         1 MAIN        0.061766 
     36 C21         0.108000   -5.856000    0.710000 C.ar      1 MAIN       -0.061500 
     37 H22        -0.338000   -6.052000    2.810000 H         1 MAIN        0.061758 
     38 C22        -0.225000   -5.365000    1.972000 C.ar      1 MAIN       -0.061742 
     39 O23        -1.927000   -0.514000   -2.711000 O.3       1 MAIN       -0.326941 
     40 H24        -1.722000    0.909000   -4.168000 H         1 MAIN        0.069697 
     41 C24        -1.769000    0.855000   -3.080000 C.3       1 MAIN        0.140382 
     42 C25        -0.497000    1.408000   -2.500000 C.2       1 MAIN        0.242810 
     43 O26         0.348000    2.022000   -3.158000 O.2       1 MAIN       -0.272943 
     44 H272       -3.882000    1.262000   -2.985000 H         1 MAIN        0.029754 
     45 H271       -2.987000    1.674000   -1.503000 H         1 MAIN        0.029754 
     46 C27        -2.960000    1.690000   -2.592000 C.3       1 MAIN       -0.015285 
     47 H28        -1.820000    3.482000   -2.852000 H         1 MAIN        0.029640 
     48 C28        -2.832000    3.142000   -3.074000 C.3       1 MAIN       -0.043905 
     49 H293       -2.943000    4.277000   -4.906000 H         1 MAIN        0.023234 
     50 H292       -2.289000    2.633000   -5.100000 H         1 MAIN        0.023234 
     51 H291       -4.034000    2.872000   -4.846000 H         1 MAIN        0.023234 
     52 C29        -3.040000    3.238000   -4.591000 C.3       1 MAIN       -0.062572 
     53 H303       -3.704000    5.073000   -2.687000 H         1 MAIN        0.023234 
     54 H302       -4.832000    3.708000   -2.510000 H         1 MAIN        0.023234 
     55 H301       -3.602000    4.014000   -1.261000 H         1 MAIN        0.023234 
     56 C30        -3.813000    4.050000   -2.330000 C.3       1 MAIN       -0.062572 
     57 H31        -1.078000    0.678000   -0.562000 H         1 MAIN        0.149392 
     58 N31        -0.331000    1.235000   -1.129000 N.am      1 MAIN       -0.305471 
     59 H32         1.356000    2.456000   -1.132000 H         1 MAIN        0.055714 
     60 C32         0.844000    1.795000   -0.434000 C.3       1 MAIN        0.059860 
     61 C33         1.825000    0.723000   -0.042000 C.2       1 MAIN        0.061677 
     62 O34         1.473000   -0.188000    0.771000 O.co2     1 MAIN       -0.547908 
     63 H353        1.292000    3.027000    1.277000 H         1 MAIN        0.025109 
     64 H352       -0.228000    3.443000    0.451000 H         1 MAIN        0.025109 
     65 H351       -0.140000    1.990000    1.475000 H         1 MAIN        0.025109 
     66 C35         0.411000    2.624000    0.780000 C.3       1 MAIN       -0.041338 
     67 O36         2.994000    0.795000   -0.527000 O.co2     1 MAIN       -0.547908 
@<TRIPOS>BOND
     1    1    2 2    
     2    1    3 1    
     3    1   19 am   
     4    3    6 1    
     5    6    7 1    
     6    7    9 ar   
     7    7   11 ar   
     8    9   13 ar   
     9   11   15 ar   
    10   13   17 ar   
    11   15   17 ar   
    12   19   21 1    
    13   21   22 1    
    14   21   27 1    
    15   22   23 ar   
    16   22   24 ar   
    17   22   39 1    
    18   27   28 1    
    19   28   30 ar   
    20   28   32 ar   
    21   30   34 ar   
    22   32   36 ar   
    23   34   38 ar   
    24   36   38 ar   
    25   39   41 1    
    26   41   42 1    
    27   41   46 1    
    28   42   43 2    
    29   42   58 am   
    30   46   48 1    
    31   48   52 1    
    32   48   56 1    
    33   58   60 1    
    34   60   61 1    
    35   60   66 1    
    36   61   62 ar   
    37   61   67 ar   
    38   66   63 1    
    39   66   64 1    
    40   66   65 1    
    41   60   59 1    
    42   58   57 1    
    43   56   53 1    
    44   56   54 1    
    45   56   55 1    
    46   52   49 1    
    47   52   50 1    
    48   52   51 1    
    49   48   47 1    
    50   46   44 1    
    51   46   45 1    
    52   41   40 1    
    53   38   37 1    
    54   36   35 1    
    55   34   33 1    
    56   32   31 1    
    57   30   29 1    
    58   27   25 1    
    59   27   26 1    
    60   21   20 1    
    61   19   18 1    
    62   17   16 1    
    63   15   14 1    
    64   13   12 1    
    65   11   10 1    
    66    9    8 1    
    67    6    4 1    
    68    6    5 1    
@<TRIPOS>SUBSTRUCTURE
     1 MAIN        1 PERM              0 ****  ****    0 ROOT 
@<TRIPOS>NORMAL
@<TRIPOS>ALT_TYPE
MMFF94_ALT_TYPE_SET 
MMFF94 1 COO 2 O=CN 3 OC=O 4 HC 5 HC 6 CR 7 CB 8 HC 9 CB 10 HC 11 CB \
12 HC 13 CB 14 HC 15 CB 16 HC 17 CB 18 HNCO 19 NC=O 20 HC \
21 CR 22 PO3 23 O2P 24 O2P 25 HC 26 HC 27 CR 28 CB 29 HC \
30 CB 31 HC 32 CB 33 HC 34 CB 35 HC 36 CB 37 HC 38 CB \
39 OPO2 40 HC 41 CR 42 C=ON 43 O=CN 44 HC 45 HC 46 CR \
47 HC 48 CR 49 HC 50 HC 51 HC 52 CR 53 HC 54 HC 55 HC \
56 CR 57 HNCO 58 NC=O 59 HC 60 CR 61 CO2M 62 O2CM 63 HC \
64 HC 65 HC 66 CR 67 O2CM 
@<TRIPOS>FF_PBC
FORCE_FIELD_SETUP_FEATURE Force Field Setup information
v1.0  0 0.000000 0.000000 0.000000 0.000000 0.000000 0.000000 NONE 0 0 0 0 0 0 0 0 0 0 0 0 0
