#	Name:			zg_d_lnhoh_min
#	Creating user name:	jeff
#	Creation time:		Thu Dec 19 11:49:55 2002

#	Modifying user name:	jeff
#	Modification time:	Thu Dec 19 11:49:55 2002

@<TRIPOS>MOLECULE
zg_d_lnhoh_min
   47    47     1     2     0
SMALL
GASTEIGER


@<TRIPOS>ATOM
      1 H1          7.543000    2.993000   -1.139000 H         1 MAIN        0.061767 
      2 C1          7.362000    2.320000   -0.301000 C.ar      1 MAIN       -0.061429 
      3 H2          5.368000    1.816000   -0.941000 H         1 MAIN        0.062101 
      4 C2          6.141000    1.658000   -0.189000 C.ar      1 MAIN       -0.056372 
      5 H3         -1.635000   -0.677000   -1.687000 H         1 MAIN        0.059517 
      6 C3         -1.299000    0.145000   -2.320000 C.3       1 MAIN        0.101594 
      7 C4          5.902000    0.795000    0.880000 C.ar      1 MAIN       -0.021282 
      8 H5         -2.619000   -3.113000   -5.076000 H         1 MAIN        0.241381 
      9 O5         -1.741000   -2.554000   -4.751000 O.3       1 MAIN       -0.295136 
     10 H6         -0.184000    0.493000   -0.455000 H         1 MAIN        0.149499 
     11 N6         -0.253000    0.754000   -1.510000 N.am      1 MAIN       -0.302631 
     12 H72         1.502000    3.289000   -0.963000 H         1 MAIN        0.055844 
     13 H71         2.652000    1.995000   -1.377000 H         1 MAIN        0.055844 
     14 C7          1.635000    2.211000   -1.051000 C.3       1 MAIN        0.090248 
     15 H8          0.423000    1.743000    0.744000 H         1 MAIN        0.151458 
     16 N8          1.376000    1.565000    0.246000 N.am      1 MAIN       -0.282772 
     17 C9          0.654000    1.653000   -2.037000 C.2       1 MAIN        0.230861 
     18 O10         0.626000    1.946000   -3.229000 O.2       1 MAIN       -0.274078 
     19 H11         6.713000   -0.075000    2.677000 H         1 MAIN        0.062101 
     20 C11         6.894000    0.598000    1.839000 C.ar      1 MAIN       -0.056372 
     21 H122       -3.339000    0.392000   -2.954000 H         1 MAIN        0.029029 
     22 H121       -2.917000    1.279000   -1.469000 H         1 MAIN        0.029029 
     23 C12        -2.577000    1.001000   -2.467000 C.3       1 MAIN       -0.023561 
     24 C13        -0.874000   -0.683000   -3.505000 C.2       1 MAIN        0.255753 
     25 O14         0.093000   -0.905000   -4.217000 O.2       1 MAIN       -0.271691 
     26 H15        -1.427000    2.715000   -3.027000 H         1 MAIN        0.029618 
     27 C15        -2.395000    2.288000   -3.288000 C.3       1 MAIN       -0.044590 
     28 H163       -2.261000    2.933000   -5.341000 H         1 MAIN        0.023234 
     29 H162       -1.573000    1.321000   -5.031000 H         1 MAIN        0.023234 
     30 H161       -3.338000    1.541000   -5.077000 H         1 MAIN        0.023234 
     31 C16        -2.392000    2.000000   -4.793000 C.3       1 MAIN       -0.062595 
     32 H173       -3.360000    4.199000   -3.534000 H         1 MAIN        0.023234 
     33 H172       -4.471000    2.855000   -3.178000 H         1 MAIN        0.023234 
     34 H171       -3.453000    3.535000   -1.885000 H         1 MAIN        0.023234 
     35 C17        -3.499000    3.291000   -2.947000 C.3       1 MAIN       -0.062595 
     36 H18        -2.902000   -1.166000   -3.689000 H         1 MAIN        0.182254 
     37 N18        -1.888000   -1.453000   -3.968000 N.am      1 MAIN       -0.195958 
     38 H20         8.889000    1.104000    2.485000 H         1 MAIN        0.061767 
     39 C20         8.117000    1.259000    1.731000 C.ar      1 MAIN       -0.061429 
     40 H21         9.308000    2.634000    0.573000 H         1 MAIN        0.061758 
     41 C21         8.352000    2.119000    0.660000 C.ar      1 MAIN       -0.061740 
     42 H222        4.699000   -0.918000    0.506000 H         1 MAIN        0.061655 
     43 H221        4.341000   -0.075000    2.032000 H         1 MAIN        0.061655 
     44 C22         4.598000    0.058000    0.981000 C.3       1 MAIN        0.083653 
     45 O23         3.563000    0.788000    0.335000 O.3       1 MAIN       -0.295145 
     46 C24         2.311000    0.735000    0.854000 C.2       1 MAIN        0.352931 
     47 O25         2.017000   -0.006000    1.798000 O.2       1 MAIN       -0.241345 
@<TRIPOS>BOND
     1    4    2 ar   
     2    2   41 ar   
     3    7    4 ar   
     4   11    6 1    
     5    6   23 1    
     6    6   24 1    
     7    7   20 ar   
     8   44    7 1    
     9   37    9 1    
    10   17   11 am   
    11   16   14 1    
    12   14   17 1    
    13   46   16 am   
    14   17   18 2    
    15   20   39 ar   
    16   23   27 1    
    17   24   25 2    
    18   24   37 am   
    19   27   31 1    
    20   27   35 1    
    21   39   41 ar   
    22   45   44 1    
    23   45   46 1    
    24   46   47 2    
    25   44   42 1    
    26   44   43 1    
    27   41   40 1    
    28   39   38 1    
    29   37   36 1    
    30   35   32 1    
    31   35   33 1    
    32   35   34 1    
    33   31   28 1    
    34   31   29 1    
    35   31   30 1    
    36   27   26 1    
    37   23   21 1    
    38   23   22 1    
    39   20   19 1    
    40   16   15 1    
    41   14   12 1    
    42   14   13 1    
    43   11   10 1    
    44    9    8 1    
    45    6    5 1    
    46    4    3 1    
    47    2    1 1    
@<TRIPOS>SUBSTRUCTURE
     1 MAIN        1 PERM              0 ****  ****    0 ROOT 
@<TRIPOS>NORMAL
@<TRIPOS>ALT_TYPE
MMFF94_ALT_TYPE_SET 
MMFF94 1 HC 2 CB 3 HC 4 CB 5 HC 6 CR 7 CB 8 HO 9 -O- 10 HNCO 11 NC=O \
12 HC 13 HC 14 CR 15 HNCO 16 NC=O 17 C=ON 18 O=CN 19 HC \
20 CB 21 HC 22 HC 23 CR 24 C=ON 25 O=CN 26 HC 27 CR 28 HC \
29 HC 30 HC 31 CR 32 HC 33 HC 34 HC 35 CR 36 HNCO 37 NC=O \
38 HC 39 CB 40 HC 41 CB 42 HC 43 HC 44 CR 45 OC=O 46 COO \
47 O=CN 
@<TRIPOS>FF_PBC
FORCE_FIELD_SETUP_FEATURE Force Field Setup information
v1.0  0 0.000000 0.000000 0.000000 0.000000 0.000000 0.000000 NONE 0 0 0 0 0 0 0 0 0 0 0 0 0
