#	Name:			zgg_d_lnhoh_min
#	Creating user name:	jeff
#	Creation time:		Thu Dec 19 11:49:53 2002

#	Modifying user name:	jeff
#	Modification time:	Thu Dec 19 11:49:53 2002

@<TRIPOS>MOLECULE
zgg_d_lnhoh_min
   54    54     1     2     0
SMALL
GASTEIGER


@<TRIPOS>ATOM
      1 H12         3.796475    1.186469   -0.171791 H         1 MAIN        0.055844 
      2 H11         3.856475   -0.585531   -0.331791 H         1 MAIN        0.055844 
      3 C1          3.659475    0.239469    0.352209 C.3       1 MAIN        0.090241 
      4 H2          4.333475   -0.282531    2.422209 H         1 MAIN        0.151458 
      5 N2          4.615475    0.170469    1.471209 N.am      1 MAIN       -0.282772 
      6 C3          2.245475    0.149469    0.825209 C.2       1 MAIN        0.230662 
      7 O4          1.888475   -0.679531    1.658209 O.2       1 MAIN       -0.274085 
      8 H5         -0.711525    1.537469   -3.581791 H         1 MAIN        0.059517 
      9 C5         -1.184525    0.793469   -2.941791 C.3       1 MAIN        0.101594 
     10 H6         -2.548525   -3.179531   -4.897791 H         1 MAIN        0.241381 
     11 O6         -1.686525   -2.548531   -4.679791 O.3       1 MAIN       -0.295136 
     12 H72         1.438475    2.974469   -0.461791 H         1 MAIN        0.055771 
     13 H71         2.594475    1.820469   -1.167791 H         1 MAIN        0.055771 
     14 C7          1.573475    1.950469   -0.809791 C.3       1 MAIN        0.088158 
     15 H8          0.296475    0.989469    0.698209 H         1 MAIN        0.149233 
     16 N8          1.303475    1.011469    0.283209 N.am      1 MAIN       -0.305428 
     17 C9          0.604475    1.651469   -1.909791 C.2       1 MAIN        0.230787 
     18 O10         0.711475    2.033469   -3.071791 O.2       1 MAIN       -0.274079 
     19 H11         8.332633    5.660428   -2.827430 H         1 MAIN        0.061767 
     20 C11         7.548633    5.023428   -2.417430 C.ar      1 MAIN       -0.061429 
     21 H12        -0.851525    0.495469   -0.691791 H         1 MAIN        0.149499 
     22 N12        -0.525525    0.906469   -1.647791 N.am      1 MAIN       -0.302632 
     23 H132       -3.158525    0.904469   -3.784791 H         1 MAIN        0.029029 
     24 H131       -3.123525    0.722469   -2.014791 H         1 MAIN        0.029029 
     25 C13        -2.651525    1.208469   -2.869791 C.3       1 MAIN       -0.023561 
     26 C14        -0.875525   -0.448531   -3.731791 C.2       1 MAIN        0.255753 
     27 O15         0.137475   -0.796531   -4.304791 O.2       1 MAIN       -0.271691 
     28 H16        -2.042525    3.043469   -1.948791 H         1 MAIN        0.029618 
     29 C16        -2.755525    2.728469   -2.710791 C.3       1 MAIN       -0.044590 
     30 H173       -2.487525    4.514469   -3.895791 H         1 MAIN        0.023234 
     31 H172       -1.388525    3.180469   -4.320791 H         1 MAIN        0.023234 
     32 H171       -3.099525    3.114469   -4.807791 H         1 MAIN        0.023234 
     33 C17        -2.407525    3.435469   -4.029791 C.3       1 MAIN       -0.062595 
     34 H183       -4.223525    4.198469   -2.161791 H         1 MAIN        0.023234 
     35 H182       -4.881525    2.784469   -3.018791 H         1 MAIN        0.023234 
     36 H181       -4.387525    2.640469   -1.315791 H         1 MAIN        0.023234 
     37 C18        -4.162525    3.115469   -2.270791 C.3       1 MAIN       -0.062595 
     38 H19        -2.884525   -1.045531   -3.806791 H         1 MAIN        0.182254 
     39 N19        -1.862525   -1.329531   -4.058791 N.am      1 MAIN       -0.195958 
     40 H20         8.940633    3.683428   -1.462430 H         1 MAIN        0.062101 
     41 C20         7.891633    3.913428   -1.647430 C.ar      1 MAIN       -0.056372 
     42 C21         6.898633    3.101428   -1.118430 C.ar      1 MAIN       -0.021282 
     43 H22         4.774633    2.772428   -0.956430 H         1 MAIN        0.062101 
     44 C22         5.557633    3.407428   -1.369430 C.ar      1 MAIN       -0.056372 
     45 H23         4.162633    4.741428   -2.332430 H         1 MAIN        0.061767 
     46 C23         5.211633    4.513428   -2.141430 C.ar      1 MAIN       -0.061429 
     47 H24         5.950633    6.195428   -3.268430 H         1 MAIN        0.061758 
     48 C24         6.211633    5.325428   -2.665430 C.ar      1 MAIN       -0.061740 
     49 H252        7.945633    1.274428   -0.829430 H         1 MAIN        0.061655 
     50 H251        7.742633    2.256428    0.640570 H         1 MAIN        0.061655 
     51 C25         7.260633    1.915428   -0.275430 C.3       1 MAIN        0.083653 
     52 O26         6.083000    1.175000    0.056000 O.3       1 MAIN       -0.295145 
     53 C27         5.887475    0.698469    1.282209 C.2       1 MAIN        0.352931 
     54 O28         6.758475    0.734469    2.160209 O.2       1 MAIN       -0.241345 
@<TRIPOS>BOND
     1    5    3 1    
     2    3    6 1    
     3   53    5 am   
     4    6    7 2    
     5    6   16 am   
     6   22    9 1    
     7    9   25 1    
     8    9   26 1    
     9   39   11 1    
    10   16   14 1    
    11   14   17 1    
    12   17   18 2    
    13   17   22 am   
    14   41   20 ar   
    15   20   48 ar   
    16   25   29 1    
    17   26   27 2    
    18   26   39 am   
    19   29   33 1    
    20   29   37 1    
    21   42   41 ar   
    22   42   44 ar   
    23   51   42 1    
    24   44   46 ar   
    25   46   48 ar   
    26   52   51 1    
    27   52   53 1    
    28   53   54 2    
    29   51   49 1    
    30   51   50 1    
    31   48   47 1    
    32   46   45 1    
    33   44   43 1    
    34   41   40 1    
    35   39   38 1    
    36   37   34 1    
    37   37   35 1    
    38   37   36 1    
    39   33   30 1    
    40   33   31 1    
    41   33   32 1    
    42   29   28 1    
    43   25   23 1    
    44   25   24 1    
    45   22   21 1    
    46   20   19 1    
    47   16   15 1    
    48   14   12 1    
    49   14   13 1    
    50   11   10 1    
    51    9    8 1    
    52    5    4 1    
    53    3    1 1    
    54    3    2 1    
@<TRIPOS>SUBSTRUCTURE
     1 MAIN        1 PERM              0 ****  ****    0 ROOT 
@<TRIPOS>NORMAL
@<TRIPOS>ALT_TYPE
MMFF94_ALT_TYPE_SET 
MMFF94 1 HC 2 HC 3 CR 4 HNCO 5 NC=O 6 C=ON 7 O=CN 8 HC 9 CR 10 HO 11 -O- \
12 HC 13 HC 14 CR 15 HNCO 16 NC=O 17 C=ON 18 O=CN 19 HC \
20 CB 21 HNCO 22 NC=O 23 HC 24 HC 25 CR 26 C=ON 27 O=CN \
28 HC 29 CR 30 HC 31 HC 32 HC 33 CR 34 HC 35 HC 36 HC \
37 CR 38 HNCO 39 NC=O 40 HC 41 CB 42 CB 43 HC 44 CB 45 HC \
46 CB 47 HC 48 CB 49 HC 50 HC 51 CR 52 OC=O 53 COO 54 O=CN \

@<TRIPOS>FF_PBC
FORCE_FIELD_SETUP_FEATURE Force Field Setup information
v1.0  0 0.000000 0.000000 0.000000 0.000000 0.000000 0.000000 NONE 0 0 0 0 0 0 0 0 0 0 0 0 0
