#	Name:			ZGGLNHOH_min
#	Creating user name:	jeff
#	Creation time:		Thu Dec 19 11:49:53 2002

#	Modifying user name:	jeff
#	Modification time:	Thu Dec 19 11:49:53 2002

@<TRIPOS>MOLECULE
ZGGLNHOH_min
   54    54     1     2     0
SMALL
GASTEIGER


@<TRIPOS>ATOM
      1 H12         4.018091    1.058638   -0.355177 H         1 MAIN        0.055844 
      2 H11         3.629091   -0.672362   -0.214177 H         1 MAIN        0.055844 
      3 C1          3.697091    0.271638    0.326823 C.3       1 MAIN        0.090241 
      4 H2          4.456091   -0.434362    2.306823 H         1 MAIN        0.151458 
      5 N2          4.690091    0.135638    1.408823 N.am      1 MAIN       -0.282772 
      6 C3          2.351091    0.618638    0.876823 C.2       1 MAIN        0.230662 
      7 O4          1.913091    0.093638    1.896823 O.2       1 MAIN       -0.274085 
      8 H5         -1.486909   -0.771362   -1.446177 H         1 MAIN        0.059517 
      9 C5         -1.190909   -0.033362   -2.191177 C.3       1 MAIN        0.101594 
     10 H6         -2.441909   -3.396362   -4.923177 H         1 MAIN        0.241381 
     11 O6         -1.725909   -2.616362   -4.665177 O.3       1 MAIN       -0.295136 
     12 H72         1.901091    3.095638   -1.191177 H         1 MAIN        0.055771 
     13 H71         2.855091    1.620638   -1.478177 H         1 MAIN        0.055771 
     14 C7          1.882091    2.006638   -1.171177 C.3       1 MAIN        0.088158 
     15 H8          0.674091    1.926638    0.678823 H         1 MAIN        0.149233 
     16 N8          1.566091    1.536638    0.189823 N.am      1 MAIN       -0.305428 
     17 C9          0.817091    1.498638   -2.101177 C.2       1 MAIN        0.230787 
     18 O10         0.708091    1.831638   -3.279177 O.2       1 MAIN       -0.274079 
     19 H11         4.293628    4.797089   -2.556150 H         1 MAIN        0.061767 
     20 C11         5.312628    4.649089   -2.198150 C.ar      1 MAIN       -0.061429 
     21 H12         0.135091    0.312638   -0.480177 H         1 MAIN        0.149499 
     22 N12        -0.047909    0.587638   -1.519177 N.am      1 MAIN       -0.302632 
     23 H132       -3.245909    0.238638   -2.760177 H         1 MAIN        0.029029 
     24 H131       -2.756909    1.144638   -1.308177 H         1 MAIN        0.029029 
     25 C13        -2.457909    0.844638   -2.313177 C.3       1 MAIN       -0.023561 
     26 C14        -0.897909   -0.934362   -3.351177 C.2       1 MAIN        0.255753 
     27 O15        -0.008909   -0.971362   -4.202177 O.2       1 MAIN       -0.271691 
     28 H16        -1.336909    2.565638   -2.915177 H         1 MAIN        0.029618 
     29 C16        -2.299909    2.116638   -3.160177 C.3       1 MAIN       -0.044590 
     30 H173       -2.185909    2.721638   -5.227177 H         1 MAIN        0.023234 
     31 H172       -1.472909    1.126638   -4.888177 H         1 MAIN        0.023234 
     32 H171       -3.240909    1.319638   -4.929177 H         1 MAIN        0.023234 
     33 C17        -2.299909    1.798638   -4.659177 C.3       1 MAIN       -0.062595 
     34 H183       -3.302909    4.004638   -3.437177 H         1 MAIN        0.023234 
     35 H182       -4.385909    2.645638   -3.051177 H         1 MAIN        0.023234 
     36 H181       -3.376909    3.369638   -1.776177 H         1 MAIN        0.023234 
     37 C18        -3.422909    3.105638   -2.832177 C.3       1 MAIN       -0.062595 
     38 H19        -2.726909   -2.006362   -2.810177 H         1 MAIN        0.182254 
     39 N19        -1.900909   -1.870362   -3.508177 N.am      1 MAIN       -0.195958 
     40 H20         4.862628    2.793089   -1.202150 H         1 MAIN        0.062101 
     41 C20         5.634628    3.524089   -1.440150 C.ar      1 MAIN       -0.056372 
     42 C21         6.938628    3.329089   -0.983150 C.ar      1 MAIN       -0.021282 
     43 H22         8.945628    4.117089   -0.931150 H         1 MAIN        0.062101 
     44 C22         7.925628    4.266089   -1.284150 C.ar      1 MAIN       -0.056372 
     45 H23         8.375628    6.127089   -2.268150 H         1 MAIN        0.061767 
     46 C23         7.604628    5.391089   -2.037150 C.ar      1 MAIN       -0.061429 
     47 H24         6.058628    6.465089   -3.088150 H         1 MAIN        0.061758 
     48 C24         6.302628    5.583089   -2.496150 C.ar      1 MAIN       -0.061740 
     49 H252        7.985628    1.495089   -0.726150 H         1 MAIN        0.061655 
     50 H251        7.732628    2.424089    0.770850 H         1 MAIN        0.061655 
     51 C25         7.281628    2.114089   -0.171150 C.3       1 MAIN        0.083653 
     52 O26         6.094000    1.363000    0.094000 O.3       1 MAIN       -0.295145 
     53 C27         5.931091    0.749638    1.262823 C.2       1 MAIN        0.352931 
     54 O28         6.812091    0.733638    2.129823 O.2       1 MAIN       -0.241345 
@<TRIPOS>BOND
     1    5    3 1    
     2    3    6 1    
     3   53    5 am   
     4    6    7 2    
     5    6   16 am   
     6   22    9 1    
     7    9   25 1    
     8    9   26 1    
     9   39   11 1    
    10   16   14 1    
    11   14   17 1    
    12   17   18 2    
    13   17   22 am   
    14   41   20 ar   
    15   20   48 ar   
    16   25   29 1    
    17   26   27 2    
    18   26   39 am   
    19   29   33 1    
    20   29   37 1    
    21   42   41 ar   
    22   42   44 ar   
    23   51   42 1    
    24   44   46 ar   
    25   46   48 ar   
    26   52   51 1    
    27   52   53 1    
    28   53   54 2    
    29   51   49 1    
    30   51   50 1    
    31   48   47 1    
    32   46   45 1    
    33   44   43 1    
    34   41   40 1    
    35   39   38 1    
    36   37   34 1    
    37   37   35 1    
    38   37   36 1    
    39   33   30 1    
    40   33   31 1    
    41   33   32 1    
    42   29   28 1    
    43   25   23 1    
    44   25   24 1    
    45   22   21 1    
    46   20   19 1    
    47   16   15 1    
    48   14   12 1    
    49   14   13 1    
    50   11   10 1    
    51    9    8 1    
    52    5    4 1    
    53    3    1 1    
    54    3    2 1    
@<TRIPOS>SUBSTRUCTURE
     1 MAIN        1 PERM              0 ****  ****    0 ROOT 
@<TRIPOS>NORMAL
@<TRIPOS>ALT_TYPE
MMFF94_ALT_TYPE_SET 
MMFF94 1 HC 2 HC 3 CR 4 HNCO 5 NC=O 6 C=ON 7 O=CN 8 HC 9 CR 10 HO 11 -O- \
12 HC 13 HC 14 CR 15 HNCO 16 NC=O 17 C=ON 18 O=CN 19 HC \
20 CB 21 HNCO 22 NC=O 23 HC 24 HC 25 CR 26 C=ON 27 O=CN \
28 HC 29 CR 30 HC 31 HC 32 HC 33 CR 34 HC 35 HC 36 HC \
37 CR 38 HNCO 39 NC=O 40 HC 41 CB 42 CB 43 HC 44 CB 45 HC \
46 CB 47 HC 48 CB 49 HC 50 HC 51 CR 52 OC=O 53 COO 54 O=CN \

@<TRIPOS>FF_PBC
FORCE_FIELD_SETUP_FEATURE Force Field Setup information
v1.0  0 0.000000 0.000000 0.000000 0.000000 0.000000 0.000000 NONE 0 0 0 0 0 0 0 0 0 0 0 0 0
