#	Name:			zggnhoh_min
#	Creating user name:	jeff
#	Creation time:		Thu Dec 19 11:49:53 2002

#	Modifying user name:	jeff
#	Modification time:	Thu Dec 19 11:49:53 2002

@<TRIPOS>MOLECULE
zggnhoh_min
   35    35     1     2     0
SMALL
GASTEIGER


@<TRIPOS>ATOM
      1 H1          7.165838    3.186714   -1.272746 H         1 MAIN        0.061767 
      2 C1          7.049838    2.477714   -0.451746 C.ar      1 MAIN       -0.061429 
      3 H2          5.039838    1.935714   -1.004746 H         1 MAIN        0.062101 
      4 C2          5.855838    1.773714   -0.301746 C.ar      1 MAIN       -0.056372 
      5 H32        -2.565367    0.230396   -2.616614 H         1 MAIN        0.055839 
      6 H31        -1.707367    1.439396   -3.602614 H         1 MAIN        0.055839 
      7 C3         -1.587367    0.571396   -2.954614 C.3       1 MAIN        0.090114 
      8 C4          5.700838    0.864714    0.743254 C.ar      1 MAIN       -0.021282 
      9 H5         -2.494367   -3.375604   -4.807614 H         1 MAIN        0.241381 
     10 O5         -1.646367   -2.721604   -4.605614 O.3       1 MAIN       -0.295143 
     11 H6         -1.060367    0.660396   -0.775614 H         1 MAIN        0.149234 
     12 N6         -0.802367    0.963396   -1.790614 N.am      1 MAIN       -0.305359 
     13 H72         0.938633    3.090396   -0.550614 H         1 MAIN        0.055844 
     14 H71         2.240633    2.134396   -1.298614 H         1 MAIN        0.055844 
     15 C7          1.208633    2.112396   -0.950614 C.3       1 MAIN        0.090241 
     16 H8          0.039633    0.837396    0.412386 H         1 MAIN        0.151458 
     17 N8          1.048633    1.086396    0.084386 N.am      1 MAIN       -0.282772 
     18 C9          0.296633    1.753396   -2.078614 C.2       1 MAIN        0.230663 
     19 O10         0.473633    2.106396   -3.242614 O.2       1 MAIN       -0.274085 
     20 H11         6.632838   -0.040286    2.463254 H         1 MAIN        0.062101 
     21 C11         6.748838    0.667714    1.642254 C.ar      1 MAIN       -0.056372 
     22 C13        -0.940367   -0.533604   -3.744614 C.2       1 MAIN        0.252588 
     23 O14         0.139633   -0.750604   -4.270614 O.2       1 MAIN       -0.272010 
     24 H15        -2.891367   -1.228604   -3.868614 H         1 MAIN        0.182245 
     25 N15        -1.851367   -1.487604   -4.067614 N.am      1 MAIN       -0.196197 
     26 H17         8.758838    1.213714    2.202254 H         1 MAIN        0.061767 
     27 C17         7.943838    1.370714    1.496254 C.ar      1 MAIN       -0.061429 
     28 H18         9.029838    2.822714    0.329254 H         1 MAIN        0.061758 
     29 C18         8.094838    2.274714    0.446254 C.ar      1 MAIN       -0.061740 
     30 H192        4.572838   -0.909286    0.440254 H         1 MAIN        0.061655 
     31 H191        4.204838   -0.039286    1.949254 H         1 MAIN        0.061655 
     32 C19         4.432838    0.074714    0.889254 C.3       1 MAIN        0.083653 
     33 O20         3.336000    0.728000    0.245000 O.3       1 MAIN       -0.295145 
     34 C21         2.116633    0.411396    0.671386 C.2       1 MAIN        0.352931 
     35 O22         1.935633   -0.439604    1.547386 O.2       1 MAIN       -0.241345 
@<TRIPOS>BOND
     1    4    2 ar   
     2    2   29 ar   
     3    8    4 ar   
     4   12    7 1    
     5    7   22 1    
     6    8   21 ar   
     7   32    8 1    
     8   25   10 1    
     9   18   12 am   
    10   17   15 1    
    11   15   18 1    
    12   34   17 am   
    13   18   19 2    
    14   21   27 ar   
    15   22   23 2    
    16   22   25 am   
    17   27   29 ar   
    18   33   32 1    
    19   33   34 1    
    20   34   35 2    
    21   32   30 1    
    22   32   31 1    
    23   29   28 1    
    24   27   26 1    
    25   25   24 1    
    26   21   20 1    
    27   17   16 1    
    28   15   13 1    
    29   15   14 1    
    30   12   11 1    
    31   10    9 1    
    32    7    5 1    
    33    7    6 1    
    34    4    3 1    
    35    2    1 1    
@<TRIPOS>SUBSTRUCTURE
     1 MAIN        1 PERM              0 ****  ****    0 ROOT 
@<TRIPOS>NORMAL
@<TRIPOS>ALT_TYPE
MMFF94_ALT_TYPE_SET 
MMFF94 1 HC 2 CB 3 HC 4 CB 5 HC 6 HC 7 CR 8 CB 9 HO 10 -O- 11 HNCO 12 NC=O \
13 HC 14 HC 15 CR 16 HNCO 17 NC=O 18 C=ON 19 O=CN 20 HC \
21 CB 22 C=ON 23 O=CN 24 HNCO 25 NC=O 26 HC 27 CB 28 HC \
29 CB 30 HC 31 HC 32 CR 33 OC=O 34 COO 35 O=CN 
@<TRIPOS>FF_PBC
FORCE_FIELD_SETUP_FEATURE Force Field Setup information
v1.0  0 0.000000 0.000000 0.000000 0.000000 0.000000 0.000000 NONE 0 0 0 0 0 0 0 0 0 0 0 0 0
