#	Name:			zglnh2_min
#	Creating user name:	jeff
#	Creation time:		Thu Dec 19 11:49:54 2002

#	Modifying user name:	jeff
#	Modification time:	Thu Dec 19 11:49:54 2002

@<TRIPOS>MOLECULE
zglnh2_min
   46    46     1     2     0
SMALL
GASTEIGER


@<TRIPOS>ATOM
      1 H1          8.994813    1.177939    2.406595 H         1 MAIN        0.061767 
      2 C1          8.180813    1.292939    1.691595 C.ar      1 MAIN       -0.061429 
      3 H2          6.867813   -0.056061    2.742595 H         1 MAIN        0.062101 
      4 C2          6.984813    0.600939    1.879595 C.ar      1 MAIN       -0.056372 
      5 H3         -1.708584   -0.844285   -1.345916 H         1 MAIN        0.059442 
      6 C3         -1.392584   -0.307285   -2.239916 C.3       1 MAIN        0.099418 
      7 C4          5.937813    0.743939    0.970595 C.ar      1 MAIN       -0.021282 
      8 H6          0.260416   -0.232285   -0.837916 H         1 MAIN        0.149498 
      9 N6         -0.099584    0.213715   -1.764916 N.am      1 MAIN       -0.302708 
     10 H72         1.807416    2.747715   -1.337916 H         1 MAIN        0.055844 
     11 H71         2.759416    1.276715   -1.648916 H         1 MAIN        0.055844 
     12 C7          1.783416    1.658715   -1.348916 C.3       1 MAIN        0.090248 
     13 H8          0.435416    1.311715    0.375084 H         1 MAIN        0.151458 
     14 N8          1.443416    1.154715   -0.008916 N.am      1 MAIN       -0.282772 
     15 C9          0.736416    1.182715   -2.307916 C.2       1 MAIN        0.230860 
     16 O10         0.653416    1.619715   -3.452916 O.2       1 MAIN       -0.274078 
     17 H11         5.279813    1.704939   -0.842405 H         1 MAIN        0.062101 
     18 C11         6.095813    1.586939   -0.129405 C.ar      1 MAIN       -0.056372 
     19 H122       -3.412584    0.190715   -2.771916 H         1 MAIN        0.029028 
     20 H121       -2.792584    1.052715   -1.343916 H         1 MAIN        0.029028 
     21 C12        -2.553584    0.713715   -2.351916 C.3       1 MAIN       -0.023637 
     22 C13        -1.407584   -1.532285   -3.123916 C.2       1 MAIN        0.230829 
     23 O14        -0.800584   -1.749285   -4.166916 O.2       1 MAIN       -0.273996 
     24 H15        -1.299584    2.322715   -2.982916 H         1 MAIN        0.029618 
     25 C15        -2.301584    1.959715   -3.212916 C.3       1 MAIN       -0.044591 
     26 H163       -2.166584    2.546715   -5.279916 H         1 MAIN        0.023234 
     27 H162       -1.584584    0.898715   -4.943916 H         1 MAIN        0.023234 
     28 H161       -3.330584    1.239715   -4.961916 H         1 MAIN        0.023234 
     29 C16        -2.349584    1.638715   -4.706916 C.3       1 MAIN       -0.062595 
     30 H173       -3.143584    3.923715   -3.495916 H         1 MAIN        0.023234 
     31 H172       -4.333584    2.667715   -3.079916 H         1 MAIN        0.023234 
     32 H171       -3.246584    3.313715   -1.826916 H         1 MAIN        0.023234 
     33 C17        -3.330584    3.044715   -2.879916 C.3       1 MAIN       -0.062595 
     34 H182       -2.349584   -3.458285   -3.301916 H         1 MAIN        0.144987 
     35 H181       -2.880584   -2.410285   -1.824916 H         1 MAIN        0.144987 
     36 N18        -2.274584   -2.539285   -2.720916 N.am      1 MAIN       -0.327797 
     37 H20         7.406813    2.936939   -1.184405 H         1 MAIN        0.061767 
     38 C20         7.288813    2.279939   -0.322405 C.ar      1 MAIN       -0.061429 
     39 H21         9.268813    2.670939    0.439595 H         1 MAIN        0.061758 
     40 C21         8.332813    2.130939    0.588595 C.ar      1 MAIN       -0.061740 
     41 H222        4.826813   -1.067061    0.883595 H         1 MAIN        0.061655 
     42 H221        4.360813    0.029939    2.205595 H         1 MAIN        0.061655 
     43 C22         4.661813   -0.025061    1.159595 C.3       1 MAIN        0.083653 
     44 O23         3.625000    0.521000    0.340000 O.3       1 MAIN       -0.295145 
     45 C24         2.370416    0.485715    0.780084 C.2       1 MAIN        0.352931 
     46 O25         2.047416   -0.101285    1.816084 O.2       1 MAIN       -0.241345 
@<TRIPOS>BOND
     1    4    2 ar   
     2    2   40 ar   
     3    7    4 ar   
     4    9    6 1    
     5    6   21 1    
     6    6   22 1    
     7   43    7 1    
     8    7   18 ar   
     9   15    9 am   
    10   14   12 1    
    11   12   15 1    
    12   45   14 am   
    13   15   16 2    
    14   18   38 ar   
    15   21   25 1    
    16   22   23 2    
    17   22   36 am   
    18   25   29 1    
    19   25   33 1    
    20   38   40 ar   
    21   44   43 1    
    22   44   45 1    
    23   45   46 2    
    24   43   41 1    
    25   43   42 1    
    26   40   39 1    
    27   38   37 1    
    28   36   34 1    
    29   36   35 1    
    30   33   30 1    
    31   33   31 1    
    32   33   32 1    
    33   29   26 1    
    34   29   27 1    
    35   29   28 1    
    36   25   24 1    
    37   21   19 1    
    38   21   20 1    
    39   18   17 1    
    40   14   13 1    
    41   12   10 1    
    42   12   11 1    
    43    9    8 1    
    44    6    5 1    
    45    4    3 1    
    46    2    1 1    
@<TRIPOS>SUBSTRUCTURE
     1 MAIN        1 PERM              0 ****  ****    0 ROOT 
@<TRIPOS>NORMAL
@<TRIPOS>ALT_TYPE
MMFF94_ALT_TYPE_SET 
MMFF94 1 HC 2 CB 3 HC 4 CB 5 HC 6 CR 7 CB 8 HNCO 9 NC=O 10 HC 11 HC \
12 CR 13 HNCO 14 NC=O 15 C=ON 16 O=CN 17 HC 18 CB 19 HC \
20 HC 21 CR 22 C=ON 23 O=CN 24 HC 25 CR 26 HC 27 HC 28 HC \
29 CR 30 HC 31 HC 32 HC 33 CR 34 HNCO 35 HNCO 36 NC=O \
37 HC 38 CB 39 HC 40 CB 41 HC 42 HC 43 CR 44 OC=O 45 COO \
46 O=CN 
@<TRIPOS>FF_PBC
FORCE_FIELD_SETUP_FEATURE Force Field Setup information
v1.0  0 0.000000 0.000000 0.000000 0.000000 0.000000 0.000000 NONE 0 0 0 0 0 0 0 0 0 0 0 0 0
