#	Name:			zglnmeoh_min
#	Creating user name:	jeff
#	Creation time:		Thu Dec 19 11:49:54 2002

#	Modifying user name:	jeff
#	Modification time:	Thu Dec 19 11:49:54 2002

@<TRIPOS>MOLECULE
zglnmeoh_min
   50    50     1     2     0
SMALL
GASTEIGER


@<TRIPOS>ATOM
      1 H1          8.802237    1.289532    2.017305 H         1 MAIN        0.061767 
      2 C1          7.960237    1.459532    1.346305 C.ar      1 MAIN       -0.061429 
      3 H2          6.695237    0.016532    2.326305 H         1 MAIN        0.062101 
      4 C2          6.776237    0.745532    1.519305 C.ar      1 MAIN       -0.056372 
      5 H3         -2.411146   -0.397392   -2.149537 H         1 MAIN        0.059524 
      6 C3         -1.475146   -0.120392   -2.634537 C.3       1 MAIN        0.101796 
      7 C4          5.694237    0.957532    0.665305 C.ar      1 MAIN       -0.021282 
      8 H5          1.171854   -3.876392   -1.502537 H         1 MAIN        0.241645 
      9 O5          0.794854   -3.180392   -2.252537 O.3       1 MAIN       -0.292682 
     10 H6         -0.973146    0.687608   -0.656537 H         1 MAIN        0.149499 
     11 N6         -0.713146    0.736608   -1.713537 N.am      1 MAIN       -0.302624 
     12 H72         0.709854    3.096608   -0.603537 H         1 MAIN        0.055844 
     13 H71         2.157854    2.277608   -1.235537 H         1 MAIN        0.055844 
     14 C7          1.118854    2.142608   -0.937537 C.3       1 MAIN        0.090248 
     15 H8          0.031854    0.909608    0.518463 H         1 MAIN        0.151458 
     16 N8          1.023854    1.148608    0.133463 N.am      1 MAIN       -0.282772 
     17 C9          0.319854    1.610608   -2.079537 C.2       1 MAIN        0.230861 
     18 O10         0.560854    1.927608   -3.245537 O.2       1 MAIN       -0.274078 
     19 H11         4.961237    2.070532   -1.026695 H         1 MAIN        0.062101 
     20 C11         5.805237    1.894532   -0.359695 C.ar      1 MAIN       -0.056372 
     21 H122       -1.001146    0.785608   -4.531537 H         1 MAIN        0.029029 
     22 H121       -2.588146   -0.017392   -4.477537 H         1 MAIN        0.029029 
     23 C12        -1.892146    0.615608   -3.927537 C.3       1 MAIN       -0.023554 
     24 C13        -0.681146   -1.370392   -2.921537 C.2       1 MAIN        0.258074 
     25 O14        -0.388146   -1.687392   -4.066537 O.2       1 MAIN       -0.271478 
     26 H15        -1.830146    2.612608   -3.177537 H         1 MAIN        0.029618 
     27 C15        -2.571146    1.976608   -3.662537 C.3       1 MAIN       -0.044590 
     28 H163       -3.484146    3.579608   -4.779537 H         1 MAIN        0.023234 
     29 H162       -2.133146    2.776608   -5.616537 H         1 MAIN        0.023234 
     30 H161       -3.712146    1.963608   -5.491537 H         1 MAIN        0.023234 
     31 C16        -3.006146    2.620608   -4.982537 C.3       1 MAIN       -0.062595 
     32 H173       -4.197146    2.858608   -2.547537 H         1 MAIN        0.023234 
     33 H172       -4.511146    1.201608   -3.114537 H         1 MAIN        0.023234 
     34 H171       -3.417146    1.478608   -1.738537 H         1 MAIN        0.023234 
     35 C17        -3.760146    1.871608   -2.695537 C.3       1 MAIN       -0.062595 
     36 N18        -0.219146   -2.259392   -1.912537 N.am      1 MAIN       -0.185400 
     37 H20         7.068237    3.340532   -1.342695 H         1 MAIN        0.061767 
     38 C20         6.988237    2.610532   -0.537695 C.ar      1 MAIN       -0.061429 
     39 H21         8.995237    2.947532    0.176305 H         1 MAIN        0.061758 
     40 C21         8.068237    2.391532    0.315305 C.ar      1 MAIN       -0.061740 
     41 H222        4.571237   -0.821468    0.377305 H         1 MAIN        0.061655 
     42 H221        4.238237    0.032532    1.903305 H         1 MAIN        0.061655 
     43 C22         4.436237    0.156532    0.838305 C.3       1 MAIN        0.083653 
     44 O23         3.318000    0.808000    0.230000 O.3       1 MAIN       -0.295145 
     45 C24         2.112854    0.487608    0.692463 C.2       1 MAIN        0.352931 
     46 O25         1.959854   -0.361392    1.576463 O.2       1 MAIN       -0.241345 
     47 H463       -1.458146   -1.636392   -0.336537 H         1 MAIN        0.045299 
     48 H462       -1.080146   -3.375392   -0.356537 H         1 MAIN        0.045299 
     49 H461        0.157854   -2.201392    0.152463 H         1 MAIN        0.045299 
     50 C46        -0.679146   -2.375392   -0.523537 C.3       1 MAIN        0.030323 
@<TRIPOS>BOND
     1    4    2 ar   
     2    2   40 ar   
     3    7    4 ar   
     4   11    6 1    
     5    6   23 1    
     6    6   24 1    
     7    7   20 ar   
     8   43    7 1    
     9   36    9 1    
    10   17   11 am   
    11   16   14 1    
    12   14   17 1    
    13   45   16 am   
    14   17   18 2    
    15   20   38 ar   
    16   23   27 1    
    17   24   25 2    
    18   24   36 am   
    19   27   31 1    
    20   27   35 1    
    21   36   50 1    
    22   38   40 ar   
    23   44   43 1    
    24   44   45 1    
    25   45   46 2    
    26   50   47 1    
    27   50   48 1    
    28   50   49 1    
    29   43   41 1    
    30   43   42 1    
    31   40   39 1    
    32   38   37 1    
    33   35   32 1    
    34   35   33 1    
    35   35   34 1    
    36   31   28 1    
    37   31   29 1    
    38   31   30 1    
    39   27   26 1    
    40   23   21 1    
    41   23   22 1    
    42   20   19 1    
    43   16   15 1    
    44   14   12 1    
    45   14   13 1    
    46   11   10 1    
    47    9    8 1    
    48    6    5 1    
    49    4    3 1    
    50    2    1 1    
@<TRIPOS>SUBSTRUCTURE
     1 MAIN        1 PERM              0 ****  ****    0 ROOT 
@<TRIPOS>NORMAL
@<TRIPOS>ALT_TYPE
MMFF94_ALT_TYPE_SET 
MMFF94 1 HC 2 CB 3 HC 4 CB 5 HC 6 CR 7 CB 8 HO 9 -O- 10 HNCO 11 NC=O \
12 HC 13 HC 14 CR 15 HNCO 16 NC=O 17 C=ON 18 O=CN 19 HC \
20 CB 21 HC 22 HC 23 CR 24 C=ON 25 O=CN 26 HC 27 CR 28 HC \
29 HC 30 HC 31 CR 32 HC 33 HC 34 HC 35 CR 36 NC=O 37 HC \
38 CB 39 HC 40 CB 41 HC 42 HC 43 CR 44 OC=O 45 COO 46 O=CN \
47 HC 48 HC 49 HC 50 CR 
@<TRIPOS>FF_PBC
FORCE_FIELD_SETUP_FEATURE Force Field Setup information
v1.0  0 0.000000 0.000000 0.000000 0.000000 0.000000 0.000000 NONE 0 0 0 0 0 0 0 0 0 0 0 0 0
