#	Name:			zglnhoh_min
#	Creating user name:	jeff
#	Creation time:		Thu Dec 19 11:49:54 2002

#	Modifying user name:	jeff
#	Modification time:	Thu Dec 19 11:49:54 2002

@<TRIPOS>MOLECULE
zglnhoh_min
   47    47     1     2     0
SMALL
GASTEIGER


@<TRIPOS>ATOM
      1 H1          7.533118    2.995810   -1.180151 H         1 MAIN        0.061767 
      2 C1          7.368118    2.328810   -0.334151 C.ar      1 MAIN       -0.061429 
      3 H2          5.364118    1.813810   -0.936151 H         1 MAIN        0.062101 
      4 C2          6.150118    1.663810   -0.196151 C.ar      1 MAIN       -0.056372 
      5 H3         -1.596716   -0.683897   -1.684888 H         1 MAIN        0.059517 
      6 C3         -1.264716    0.137103   -2.320888 C.3       1 MAIN        0.101594 
      7 C4          5.932118    0.807810    0.882849 C.ar      1 MAIN       -0.021282 
      8 H5         -2.596716   -3.106897   -5.090888 H         1 MAIN        0.241381 
      9 O5         -1.718716   -2.550897   -4.763888 O.3       1 MAIN       -0.295136 
     10 H6         -0.134716    0.479103   -0.462888 H         1 MAIN        0.149499 
     11 N6         -0.211716    0.744103   -1.517888 N.am      1 MAIN       -0.302631 
     12 H72         1.557284    3.274103   -0.979888 H         1 MAIN        0.055844 
     13 H71         2.695284    1.969103   -1.392888 H         1 MAIN        0.055844 
     14 C7          1.680284    2.194103   -1.065888 C.3       1 MAIN        0.090248 
     15 H8          0.461284    1.731103    0.725112 H         1 MAIN        0.151458 
     16 N8          1.417284    1.554103    0.233112 N.am      1 MAIN       -0.282772 
     17 C9          0.692284    1.643103   -2.047888 C.2       1 MAIN        0.230861 
     18 O10         0.657284    1.940103   -3.238888 O.2       1 MAIN       -0.274078 
     19 H11         6.776118   -0.045190    2.672849 H         1 MAIN        0.062101 
     20 C11         6.941118    0.621810    1.826849 C.ar      1 MAIN       -0.056372 
     21 H122       -3.308716    0.385103   -2.940888 H         1 MAIN        0.029029 
     22 H121       -2.875716    1.272103   -1.459888 H         1 MAIN        0.029029 
     23 C12        -2.542716    0.993103   -2.459888 C.3       1 MAIN       -0.023561 
     24 C13        -0.847716   -0.687897   -3.509888 C.2       1 MAIN        0.255753 
     25 O14         0.116284   -0.910897   -4.225888 O.2       1 MAIN       -0.271691 
     26 H15        -1.394716    2.706103   -3.027888 H         1 MAIN        0.029618 
     27 C15        -2.365716    2.280103   -3.281888 C.3       1 MAIN       -0.044590 
     28 H163       -2.246716    2.925103   -5.335888 H         1 MAIN        0.023234 
     29 H162       -1.557716    1.313103   -5.030888 H         1 MAIN        0.023234 
     30 H161       -3.323716    1.535103   -5.063888 H         1 MAIN        0.023234 
     31 C16        -2.373716    1.992103   -4.786888 C.3       1 MAIN       -0.062595 
     32 H173       -3.330716    4.192103   -3.519888 H         1 MAIN        0.023234 
     33 H172       -4.440716    2.849103   -3.154888 H         1 MAIN        0.023234 
     34 H171       -3.412716    3.528103   -1.870888 H         1 MAIN        0.023234 
     35 C17        -3.466716    3.285103   -2.931888 C.3       1 MAIN       -0.062595 
     36 H18        -2.877716   -1.165897   -3.694888 H         1 MAIN        0.182254 
     37 N18        -1.864716   -1.452897   -3.974888 N.am      1 MAIN       -0.195958 
     38 H20         8.944118    1.138810    2.434849 H         1 MAIN        0.061767 
     39 C20         8.159118    1.285810    1.692849 C.ar      1 MAIN       -0.061429 
     40 H21         9.327118    2.655810    0.504849 H         1 MAIN        0.061758 
     41 C21         8.373118    2.138810    0.611849 C.ar      1 MAIN       -0.061740 
     42 H222        4.730118   -0.916190    0.557849 H         1 MAIN        0.061655 
     43 H221        4.382118   -0.039190    2.066849 H         1 MAIN        0.061655 
     44 C22         4.630118    0.069810    1.010849 C.3       1 MAIN        0.083653 
     45 O23         3.583000    0.787000    0.352000 O.3       1 MAIN       -0.295145 
     46 C24         2.352284    0.731103    0.853112 C.2       1 MAIN        0.352931 
     47 O25         2.053284   -0.005897    1.798112 O.2       1 MAIN       -0.241345 
@<TRIPOS>BOND
     1    4    2 ar   
     2    2   41 ar   
     3    7    4 ar   
     4   11    6 1    
     5    6   23 1    
     6    6   24 1    
     7   44    7 1    
     8    7   20 ar   
     9   37    9 1    
    10   17   11 am   
    11   16   14 1    
    12   14   17 1    
    13   46   16 am   
    14   17   18 2    
    15   20   39 ar   
    16   23   27 1    
    17   24   25 2    
    18   24   37 am   
    19   27   31 1    
    20   27   35 1    
    21   39   41 ar   
    22   45   44 1    
    23   45   46 1    
    24   46   47 2    
    25   44   42 1    
    26   44   43 1    
    27   41   40 1    
    28   39   38 1    
    29   37   36 1    
    30   35   32 1    
    31   35   33 1    
    32   35   34 1    
    33   31   28 1    
    34   31   29 1    
    35   31   30 1    
    36   27   26 1    
    37   23   21 1    
    38   23   22 1    
    39   20   19 1    
    40   16   15 1    
    41   14   12 1    
    42   14   13 1    
    43   11   10 1    
    44    9    8 1    
    45    6    5 1    
    46    4    3 1    
    47    2    1 1    
@<TRIPOS>SUBSTRUCTURE
     1 MAIN        1 PERM              0 ****  ****    0 ROOT 
@<TRIPOS>NORMAL
@<TRIPOS>ALT_TYPE
MMFF94_ALT_TYPE_SET 
MMFF94 1 HC 2 CB 3 HC 4 CB 5 HC 6 CR 7 CB 8 HO 9 -O- 10 HNCO 11 NC=O \
12 HC 13 HC 14 CR 15 HNCO 16 NC=O 17 C=ON 18 O=CN 19 HC \
20 CB 21 HC 22 HC 23 CR 24 C=ON 25 O=CN 26 HC 27 CR 28 HC \
29 HC 30 HC 31 CR 32 HC 33 HC 34 HC 35 CR 36 HNCO 37 NC=O \
38 HC 39 CB 40 HC 41 CB 42 HC 43 HC 44 CR 45 OC=O 46 COO \
47 O=CN 
@<TRIPOS>FF_PBC
FORCE_FIELD_SETUP_FEATURE Force Field Setup information
v1.0  0 0.000000 0.000000 0.000000 0.000000 0.000000 0.000000 NONE 0 0 0 0 0 0 0 0 0 0 0 0 0
