#	Name:			zgly_min
#	Creating user name:	jeff
#	Creation time:		Thu Dec 19 11:49:54 2002

#	Modifying user name:	jeff
#	Modification time:	Thu Dec 19 11:49:54 2002

@<TRIPOS>MOLECULE
zgly_min
   77    78     1     2     0
SMALL
GASTEIGER


@<TRIPOS>ATOM
      1 H1          1.970000  -11.988000   -8.445000 H         1 MAIN        0.061767 
      2 C1          1.613000  -11.603000   -7.490000 C.ar      1 MAIN       -0.061429 
      3 H2          0.991000   -9.713000   -8.313000 H         1 MAIN        0.062101 
      4 C2          1.063000  -10.326000   -7.414000 C.ar      1 MAIN       -0.056372 
      5 C3          0.603000   -9.827000   -6.198000 C.ar      1 MAIN       -0.021282 
      6 H4          0.332000  -10.229000   -4.099000 H         1 MAIN        0.062101 
      7 C4          0.694000  -10.614000   -5.052000 C.ar      1 MAIN       -0.056372 
      8 H5          1.316000  -12.505000   -4.223000 H         1 MAIN        0.061767 
      9 C5          1.245000  -11.892000   -5.122000 C.ar      1 MAIN       -0.061429 
     10 H6          2.139000  -13.387000   -6.397000 H         1 MAIN        0.061758 
     11 C6          1.707000  -12.388000   -6.342000 C.ar      1 MAIN       -0.061740 
     12 H72         0.359000   -7.848000   -6.950000 H         1 MAIN        0.061655 
     13 H71        -1.071000   -8.511000   -6.125000 H         1 MAIN        0.061655 
     14 C7          0.017000   -8.447000   -6.106000 C.3       1 MAIN        0.083653 
     15 O8          0.437000   -7.841000   -4.892000 O.3       1 MAIN       -0.295145 
     16 C9         -0.464000   -7.203000   -4.109000 C.2       1 MAIN        0.352931 
     17 O10        -1.619000   -6.977000   -4.484000 O.2       1 MAIN       -0.241345 
     18 H122       -1.731000   -5.820000   -2.355000 H         1 MAIN        0.055844 
     19 H121       -1.035000   -6.808000   -1.048000 H         1 MAIN        0.055844 
     20 C12        -0.804000   -6.136000   -1.874000 C.3       1 MAIN        0.090230 
     21 H13         1.059000   -7.097000   -2.597000 H         1 MAIN        0.151458 
     22 N13         0.031000   -6.845000   -2.855000 N.am      1 MAIN       -0.282772 
     23 C14        -0.088000   -4.926000   -1.341000 C.2       1 MAIN        0.230276 
     24 O15         1.074000   -4.655000   -1.651000 O.2       1 MAIN       -0.274096 
     25 H24        -1.819000   -4.442000   -0.192000 H         1 MAIN        0.148724 
     26 N24        -0.823000   -4.108000   -0.484000 N.am      1 MAIN       -0.313957 
     27 H262       -1.136000   -2.364000    0.654000 H         1 MAIN        0.046248 
     28 H261        0.528000   -2.996000    0.687000 H         1 MAIN        0.046248 
     29 C26        -0.343000   -2.815000    0.057000 C.3       1 MAIN        0.013393 
     30 H272        0.226000   -0.856000   -0.641000 H         1 MAIN        0.029894 
     31 H271        0.959000   -2.201000   -1.548000 H         1 MAIN        0.029894 
     32 C27         0.048000   -1.844000   -1.068000 C.3       1 MAIN       -0.016647 
     33 H28        -1.754000   -2.570000   -1.937000 H         1 MAIN        0.052238 
     34 C28        -1.065000   -1.744000   -2.116000 C.3       1 MAIN        0.049311 
     35 C29        -0.553000   -1.993000   -3.495000 C.2       1 MAIN        0.058714 
     36 O30        -0.079000   -1.139000   -4.205000 O.co2     1 MAIN       -0.548201 
     37 O31        -0.505000   -3.177000   -4.134000 O.co2     1 MAIN       -0.548201 
     38 H32        -1.846000    0.469000   -3.734000 H         1 MAIN        0.055651 
     39 C32        -1.779000    0.712000   -2.673000 C.3       1 MAIN        0.085459 
     40 H33        -2.981000   -0.918000   -2.197000 H         1 MAIN        0.123250 
     41 N33        -1.982000   -0.569000   -1.935000 N.3       1 MAIN       -0.297743 
     42 H342       -3.846000    1.241000   -2.398000 H         1 MAIN        0.028744 
     43 H341       -2.736000    1.968000   -1.212000 H         1 MAIN        0.028744 
     44 C34        -2.871000    1.709000   -2.262000 C.3       1 MAIN       -0.026674 
     45 C35        -0.414000    1.332000   -2.495000 C.2       1 MAIN        0.230579 
     46 O36         0.153000    1.849000   -3.463000 O.2       1 MAIN       -0.274085 
     47 H37        -1.784000    3.346000   -3.120000 H         1 MAIN        0.029608 
     48 C37        -2.816000    2.993000   -3.101000 C.3       1 MAIN       -0.044858 
     49 H383       -3.194000    3.651000   -5.122000 H         1 MAIN        0.023234 
     50 H382       -2.574000    1.987000   -4.996000 H         1 MAIN        0.023234 
     51 H381       -4.264000    2.343000   -4.564000 H         1 MAIN        0.023234 
     52 C38        -3.243000    2.724000   -4.551000 C.3       1 MAIN       -0.062604 
     53 H393       -3.641000    4.984000   -3.073000 H         1 MAIN        0.023234 
     54 H392       -4.721000    3.731000   -2.416000 H         1 MAIN        0.023234 
     55 H391       -3.329000    4.295000   -1.462000 H         1 MAIN        0.023234 
     56 C39        -3.689000    4.079000   -2.467000 C.3       1 MAIN       -0.062604 
     57 H42         2.055000    1.638000   -2.033000 H         1 MAIN        0.056314 
     58 C42         1.561000    1.767000   -1.069000 C.3       1 MAIN        0.066584 
     59 H43        -0.406000    0.970000   -0.371000 H         1 MAIN        0.149382 
     60 N43         0.165000    1.315000   -1.234000 N.am      1 MAIN       -0.305743 
     61 C45         2.301000    0.910000   -0.077000 C.2       1 MAIN        0.062260 
     62 O46         3.514000    0.731000   -0.099000 O.co2     1 MAIN       -0.547888 
     63 H472        2.687000    3.599000   -0.948000 H         1 MAIN        0.033477 
     64 H471        0.979000    3.813000   -1.403000 H         1 MAIN        0.033477 
     65 C47         1.666000    3.270000   -0.753000 C.3       1 MAIN       -0.003914 
     66 C49         1.323000    3.583000    0.677000 C.ar      1 MAIN       -0.045254 
     67 H50         3.379000    3.937000    1.217000 H         1 MAIN        0.062030 
     68 C50         2.347000    3.904000    1.568000 C.ar      1 MAIN       -0.058503 
     69 H51        -0.801000    3.300000    0.438000 H         1 MAIN        0.062030 
     70 C51         0.005000    3.545000    1.129000 C.ar      1 MAIN       -0.058503 
     71 H52         2.865000    4.433000    3.593000 H         1 MAIN        0.061766 
     72 C52         2.060000    4.182000    2.902000 C.ar      1 MAIN       -0.061500 
     73 H53        -1.312000    3.785000    2.814000 H         1 MAIN        0.061766 
     74 C53        -0.281000    3.820000    2.463000 C.ar      1 MAIN       -0.061500 
     75 H54         0.514000    4.353000    4.395000 H         1 MAIN        0.061758 
     76 C54         0.743000    4.138000    3.352000 C.ar      1 MAIN       -0.061742 
     77 O56         1.564000    0.327000    0.894000 O.co2     1 MAIN       -0.547888 
@<TRIPOS>BOND
     1    2    4 ar   
     2    2   11 ar   
     3    4    5 ar   
     4    5    7 ar   
     5    5   14 1    
     6    7    9 ar   
     7    9   11 ar   
     8   14   15 1    
     9   15   16 1    
    10   16   17 2    
    11   16   22 am   
    12   22   20 1    
    13   20   23 1    
    14   23   24 2    
    15   23   26 am   
    16   26   29 1    
    17   29   32 1    
    18   32   34 1    
    19   34   35 1    
    20   34   41 1    
    21   35   36 ar   
    22   35   37 ar   
    23   41   39 1    
    24   39   44 1    
    25   39   45 1    
    26   44   48 1    
    27   45   46 2    
    28   45   60 am   
    29   48   52 1    
    30   48   56 1    
    31   60   58 1    
    32   58   61 1    
    33   58   65 1    
    34   61   62 ar   
    35   61   77 ar   
    36   65   66 1    
    37   66   68 ar   
    38   66   70 ar   
    39   68   72 ar   
    40   70   74 ar   
    41   72   76 ar   
    42   74   76 ar   
    43   76   75 1    
    44   74   73 1    
    45   72   71 1    
    46   70   69 1    
    47   68   67 1    
    48   65   63 1    
    49   65   64 1    
    50   60   59 1    
    51   58   57 1    
    52   56   53 1    
    53   56   54 1    
    54   56   55 1    
    55   52   49 1    
    56   52   50 1    
    57   52   51 1    
    58   48   47 1    
    59   44   42 1    
    60   44   43 1    
    61   41   40 1    
    62   39   38 1    
    63   34   33 1    
    64   32   30 1    
    65   32   31 1    
    66   29   27 1    
    67   29   28 1    
    68   26   25 1    
    69   22   21 1    
    70   20   18 1    
    71   20   19 1    
    72   14   12 1    
    73   14   13 1    
    74   11   10 1    
    75    9    8 1    
    76    7    6 1    
    77    4    3 1    
    78    2    1 1    
@<TRIPOS>SUBSTRUCTURE
     1 MAIN        1 PERM              0 ****  ****    0 ROOT 
@<TRIPOS>NORMAL
@<TRIPOS>ALT_TYPE
MMFF94_ALT_TYPE_SET 
MMFF94 1 HC 2 CB 3 HC 4 CB 5 CB 6 HC 7 CB 8 HC 9 CB 10 HC 11 CB 12 HC \
13 HC 14 CR 15 OC=O 16 COO 17 O=CN 18 HC 19 HC 20 CR \
21 HNCO 22 NC=O 23 C=ON 24 O=CN 25 HNCO 26 NC=O 27 HC \
28 HC 29 CR 30 HC 31 HC 32 CR 33 HC 34 CR 35 CO2M 36 O2CM \
37 O2CM 38 HC 39 CR 40 HNR 41 NR 42 HC 43 HC 44 CR \
45 C=ON 46 O=CN 47 HC 48 CR 49 HC 50 HC 51 HC 52 CR 53 HC \
54 HC 55 HC 56 CR 57 HC 58 CR 59 HNCO 60 NC=O 61 CO2M \
62 O2CM 63 HC 64 HC 65 CR 66 CB 67 HC 68 CB 69 HC 70 CB \
71 HC 72 CB 73 HC 74 CB 75 HC 76 CB 77 O2CM 
@<TRIPOS>FF_PBC
FORCE_FIELD_SETUP_FEATURE Force Field Setup information
v1.0  0 0.000000 0.000000 0.000000 0.000000 0.000000 0.000000 NONE 0 0 0 0 0 0 0 0 0 0 0 0 0
