#	Name:			zgpclf_min
#	Creating user name:	jeff
#	Creation time:		Thu Dec 19 11:49:54 2002

#	Modifying user name:	jeff
#	Modification time:	Thu Dec 19 11:49:54 2002

@<TRIPOS>MOLECULE
zgpclf_min
   66    67     1     2     0
SMALL
GASTEIGER


@<TRIPOS>ATOM
      1 C1          0.231000   -4.703000   -0.881000 C.2       1 MAIN        0.352850 
      2 H2         -1.593000   -3.938000   -1.776000 H         1 MAIN        0.151356 
      3 N2         -0.525000   -3.794000   -1.615000 N.am      1 MAIN       -0.286080 
      4 H32         0.414000   -1.938000   -1.353000 H         1 MAIN        0.052556 
      5 H31         1.118000   -2.968000   -2.623000 H         1 MAIN        0.052556 
      6 C3          0.188000   -2.629000   -2.164000 C.3       1 MAIN        0.050069 
      7 O5          1.454000   -4.579000   -0.736000 O.2       1 MAIN       -0.241345 
      8 O6         -0.451000   -5.730000   -0.316000 O.3       1 MAIN       -0.295145 
      9 H72         1.246000   -6.842000   -0.005000 H         1 MAIN        0.061655 
     10 H71         0.522000   -6.117000    1.450000 H         1 MAIN        0.061655 
     11 C7          0.309000   -6.609000    0.501000 C.3       1 MAIN        0.083653 
     12 C8         -0.432000   -7.883000    0.768000 C.ar      1 MAIN       -0.021282 
     13 H9          0.517000   -8.964000   -0.836000 H         1 MAIN        0.062101 
     14 C9         -0.192000   -9.015000   -0.010000 C.ar      1 MAIN       -0.056372 
     15 H10        -1.552000   -7.062000    2.417000 H         1 MAIN        0.062101 
     16 C10        -1.351000   -7.947000    1.813000 C.ar      1 MAIN       -0.056372 
     17 H11        -0.661000  -11.092000   -0.348000 H         1 MAIN        0.061767 
     18 C11        -0.854000  -10.210000    0.261000 C.ar      1 MAIN       -0.061429 
     19 H12        -2.734000   -9.189000    2.906000 H         1 MAIN        0.061767 
     20 C12        -2.016000   -9.141000    2.087000 C.ar      1 MAIN       -0.061429 
     21 H13        -2.278000  -11.209000    1.535000 H         1 MAIN        0.061758 
     22 C13        -1.764000  -10.274000    1.314000 C.ar      1 MAIN       -0.061740 
     23 P14        -0.801000   -1.766000   -3.411000 P.3       1 MAIN        0.018076 
     24 O15         0.063000   -0.985000   -4.326000 O.co2     1 MAIN       -0.554343 
     25 O16        -1.612000   -2.881000   -4.315000 O.co2     1 MAIN       -0.554343 
     26 H172       -2.950000   -0.922000   -2.767000 H         1 MAIN        0.033397 
     27 H171       -1.759000   -0.768000   -1.454000 H         1 MAIN        0.033397 
     28 C17        -1.922000   -0.651000   -2.525000 C.3       1 MAIN       -0.003848 
     29 H18        -1.732000    0.896000   -3.989000 H         1 MAIN        0.039799 
     30 C18        -1.697000    0.825000   -2.902000 C.3       1 MAIN        0.040960 
     31 C19        -0.339000    1.303000   -2.459000 C.2       1 MAIN        0.216997 
     32 O20         0.408000    1.956000   -3.193000 O.2       1 MAIN       -0.275486 
     33 H212       -3.777000    1.324000   -2.647000 H         1 MAIN        0.027508 
     34 H211       -2.751000    1.709000   -1.244000 H         1 MAIN        0.027508 
     35 C21        -2.810000    1.716000   -2.332000 C.3       1 MAIN       -0.039213 
     36 H22        -1.655000    3.492000   -2.593000 H         1 MAIN        0.029568 
     37 C22        -2.665000    3.163000   -2.836000 C.3       1 MAIN       -0.046020 
     38 H233       -2.729000    4.279000   -4.682000 H         1 MAIN        0.023233 
     39 H232       -2.078000    2.631000   -4.844000 H         1 MAIN        0.023233 
     40 H231       -3.828000    2.880000   -4.633000 H         1 MAIN        0.023233 
     41 C23        -2.837000    3.244000   -4.359000 C.3       1 MAIN       -0.062645 
     42 H243       -3.528000    5.110000   -2.508000 H         1 MAIN        0.023233 
     43 H242       -4.672000    3.759000   -2.328000 H         1 MAIN        0.023233 
     44 H241       -3.467000    4.080000   -1.058000 H         1 MAIN        0.023233 
     45 C24        -3.654000    4.095000   -2.132000 C.3       1 MAIN       -0.062645 
     46 H25        -0.549000    0.567000   -0.422000 H         1 MAIN        0.149342 
     47 N25         0.116000    0.984000   -1.179000 N.am      1 MAIN       -0.306788 
     48 H26         2.049000    1.083000   -1.858000 H         1 MAIN        0.056313 
     49 C26         1.552000    1.243000   -0.901000 C.3       1 MAIN        0.066543 
     50 C27         2.154000    0.262000    0.067000 C.2       1 MAIN        0.062260 
     51 O28         1.514000   -0.418000    0.860000 O.co2     1 MAIN       -0.547888 
     52 H292        2.931000    2.850000   -0.504000 H         1 MAIN        0.033477 
     53 H291        1.389000    3.366000   -1.229000 H         1 MAIN        0.033477 
     54 C29         1.851000    2.699000   -0.501000 C.3       1 MAIN       -0.003915 
     55 C30         1.321000    3.031000    0.864000 C.ar      1 MAIN       -0.045254 
     56 H31        -0.614000    3.642000    0.136000 H         1 MAIN        0.062030 
     57 C31         0.022000    3.507000    1.011000 C.ar      1 MAIN       -0.058503 
     58 H32         3.145000    2.489000    1.875000 H         1 MAIN        0.062030 
     59 C32         2.126000    2.860000    1.990000 C.ar      1 MAIN       -0.058503 
     60 O33         3.502000    0.183000    0.072000 O.co2     1 MAIN       -0.547888 
     61 H34        -1.480000    4.183000    2.393000 H         1 MAIN        0.061766 
     62 C34        -0.463000    3.809000    2.279000 C.ar      1 MAIN       -0.061500 
     63 H35         2.273000    3.023000    4.135000 H         1 MAIN        0.061766 
     64 C35         1.639000    3.161000    3.259000 C.ar      1 MAIN       -0.061500 
     65 H36        -0.048000    3.878000    4.395000 H         1 MAIN        0.061758 
     66 C36         0.340000    3.638000    3.405000 C.ar      1 MAIN       -0.061742 
@<TRIPOS>BOND
     1    1    3 am   
     2    1    7 2    
     3    1    8 1    
     4    3    6 1    
     5    6   23 1    
     6    8   11 1    
     7   11   12 1    
     8   12   14 ar   
     9   12   16 ar   
    10   14   18 ar   
    11   16   20 ar   
    12   18   22 ar   
    13   20   22 ar   
    14   23   24 ar   
    15   23   25 ar   
    16   23   28 1    
    17   28   30 1    
    18   30   31 1    
    19   30   35 1    
    20   31   32 2    
    21   31   47 am   
    22   35   37 1    
    23   37   41 1    
    24   37   45 1    
    25   47   49 1    
    26   49   50 1    
    27   49   54 1    
    28   50   51 ar   
    29   50   60 ar   
    30   54   55 1    
    31   55   57 ar   
    32   55   59 ar   
    33   57   62 ar   
    34   59   64 ar   
    35   62   66 ar   
    36   64   66 ar   
    37   66   65 1    
    38   64   63 1    
    39   62   61 1    
    40   59   58 1    
    41   57   56 1    
    42   54   52 1    
    43   54   53 1    
    44   49   48 1    
    45   47   46 1    
    46   45   42 1    
    47   45   43 1    
    48   45   44 1    
    49   41   38 1    
    50   41   39 1    
    51   41   40 1    
    52   37   36 1    
    53   35   33 1    
    54   35   34 1    
    55   30   29 1    
    56   28   26 1    
    57   28   27 1    
    58   22   21 1    
    59   20   19 1    
    60   18   17 1    
    61   16   15 1    
    62   14   13 1    
    63   11    9 1    
    64   11   10 1    
    65    6    4 1    
    66    6    5 1    
    67    3    2 1    
@<TRIPOS>SUBSTRUCTURE
     1 MAIN        1 PERM              0 ****  ****    0 ROOT 
@<TRIPOS>NORMAL
@<TRIPOS>ALT_TYPE
MMFF94_ALT_TYPE_SET 
MMFF94 1 COO 2 HNCO 3 NC=O 4 HC 5 HC 6 CR 7 O=CN 8 OC=O 9 HC 10 HC 11 CR \
12 CB 13 HC 14 CB 15 HC 16 CB 17 HC 18 CB 19 HC 20 CB \
21 HC 22 CB 23 PO2 24 O2P 25 O2P 26 HC 27 HC 28 CR 29 HC \
30 CR 31 C=ON 32 O=CN 33 HC 34 HC 35 CR 36 HC 37 CR 38 HC \
39 HC 40 HC 41 CR 42 HC 43 HC 44 HC 45 CR 46 HNCO 47 NC=O \
48 HC 49 CR 50 CO2M 51 O2CM 52 HC 53 HC 54 CR 55 CB \
56 HC 57 CB 58 HC 59 CB 60 O2CM 61 HC 62 CB 63 HC 64 CB \
65 HC 66 CB 
@<TRIPOS>FF_PBC
FORCE_FIELD_SETUP_FEATURE Force Field Setup information
v1.0  0 0.000000 0.000000 0.000000 0.000000 0.000000 0.000000 NONE 0 0 0 0 0 0 0 0 0 0 0 0 0
