#	Name:			zgpcla_min
#	Creating user name:	jeff
#	Creation time:		Thu Dec 19 11:49:54 2002

#	Modifying user name:	jeff
#	Modification time:	Thu Dec 19 11:49:54 2002

@<TRIPOS>MOLECULE
zgpcla_min
   56    56     1     2     0
SMALL
GASTEIGER


@<TRIPOS>ATOM
      1 C1          0.266000   -4.656000   -0.836000 C.2       1 MAIN        0.352850 
      2 H2         -1.566000   -3.745000   -1.554000 H         1 MAIN        0.151356 
      3 N2         -0.477000   -3.696000   -1.523000 N.am      1 MAIN       -0.286080 
      4 H32         0.588000   -1.892000   -1.461000 H         1 MAIN        0.052556 
      5 H31         1.119000   -3.040000   -2.712000 H         1 MAIN        0.052556 
      6 C3          0.254000   -2.614000   -2.206000 C.3       1 MAIN        0.050069 
      7 O5          1.495000   -4.577000   -0.690000 O.2       1 MAIN       -0.241345 
      8 O6         -0.445000   -5.705000   -0.350000 O.3       1 MAIN       -0.295145 
      9 H72         1.160000   -6.986000   -0.181000 H         1 MAIN        0.061655 
     10 H71         0.558000   -6.303000    1.348000 H         1 MAIN        0.061655 
     11 C7          0.268000   -6.702000    0.376000 C.3       1 MAIN        0.083653 
     12 C8         -0.598000   -7.907000    0.573000 C.ar      1 MAIN       -0.021282 
     13 H9         -1.673000   -7.079000    2.251000 H         1 MAIN        0.062101 
     14 C9         -1.560000   -7.932000    1.583000 C.ar      1 MAIN       -0.056372 
     15 H10         0.300000   -8.973000   -1.070000 H         1 MAIN        0.062101 
     16 C10        -0.453000   -8.996000   -0.282000 C.ar      1 MAIN       -0.056372 
     17 H11        -3.130000   -9.075000    2.523000 H         1 MAIN        0.061767 
     18 C11        -2.377000   -9.051000    1.735000 C.ar      1 MAIN       -0.061429 
     19 H12        -1.158000  -10.969000   -0.800000 H         1 MAIN        0.061767 
     20 C12        -1.270000  -10.115000   -0.132000 C.ar      1 MAIN       -0.061429 
     21 H13        -2.869000  -11.014000    0.995000 H         1 MAIN        0.061758 
     22 C13        -2.229000  -10.139000    0.876000 C.ar      1 MAIN       -0.061740 
     23 P14        -0.776000   -1.759000   -3.427000 P.3       1 MAIN        0.018076 
     24 O15         0.058000   -0.957000   -4.347000 O.co2     1 MAIN       -0.554343 
     25 O16        -1.597000   -2.876000   -4.321000 O.co2     1 MAIN       -0.554343 
     26 H172       -2.922000   -0.982000   -2.706000 H         1 MAIN        0.033397 
     27 H171       -1.676000   -0.733000   -1.461000 H         1 MAIN        0.033397 
     28 C17        -1.895000   -0.667000   -2.526000 C.3       1 MAIN       -0.003848 
     29 H18        -1.671000    0.800000   -4.073000 H         1 MAIN        0.039799 
     30 C18        -1.730000    0.796000   -2.984000 C.3       1 MAIN        0.040960 
     31 C19        -0.465000    1.399000   -2.436000 C.2       1 MAIN        0.216980 
     32 O20         0.364000    2.017000   -3.118000 O.2       1 MAIN       -0.275486 
     33 H212       -3.850000    1.150000   -2.872000 H         1 MAIN        0.027508 
     34 H211       -2.935000    1.701000   -1.448000 H         1 MAIN        0.027508 
     35 C21        -2.932000    1.632000   -2.536000 C.3       1 MAIN       -0.039213 
     36 H22        -1.840000    3.416000   -2.978000 H         1 MAIN        0.029568 
     37 C22        -2.852000    3.042000   -3.132000 C.3       1 MAIN       -0.046020 
     38 H233       -3.066000    4.024000   -5.041000 H         1 MAIN        0.023233 
     39 H232       -2.388000    2.381000   -5.133000 H         1 MAIN        0.023233 
     40 H231       -4.125000    2.611000   -4.821000 H         1 MAIN        0.023233 
     41 C23        -3.128000    3.013000   -4.641000 C.3       1 MAIN       -0.062645 
     42 H243       -3.749000    4.980000   -2.864000 H         1 MAIN        0.023233 
     43 H242       -4.841000    3.613000   -2.539000 H         1 MAIN        0.023233 
     44 H241       -3.573000    4.038000   -1.365000 H         1 MAIN        0.023233 
     45 C24        -3.824000    3.986000   -2.424000 C.3       1 MAIN       -0.062645 
     46 H25        -1.032000    0.720000   -0.476000 H         1 MAIN        0.149320 
     47 N25        -0.289000    1.262000   -1.061000 N.am      1 MAIN       -0.307371 
     48 H26         1.413000    2.472000   -1.100000 H         1 MAIN        0.055713 
     49 C26         0.889000    1.838000   -0.384000 C.3       1 MAIN        0.059788 
     50 C27         1.840000    0.762000    0.061000 C.2       1 MAIN        0.061676 
     51 O28         1.560000   -0.138000    0.847000 O.co2     1 MAIN       -0.547908 
     52 H293        1.335000    3.120000    1.294000 H         1 MAIN        0.025109 
     53 H292       -0.184000    3.513000    0.454000 H         1 MAIN        0.025109 
     54 H291       -0.099000    2.089000    1.518000 H         1 MAIN        0.025109 
     55 C29         0.454000    2.703000    0.807000 C.3       1 MAIN       -0.041339 
     56 O30         3.092000    0.824000   -0.445000 O.co2     1 MAIN       -0.547908 
@<TRIPOS>BOND
     1    1    3 am   
     2    1    7 2    
     3    1    8 1    
     4    3    6 1    
     5    6   23 1    
     6    8   11 1    
     7   11   12 1    
     8   12   14 ar   
     9   12   16 ar   
    10   14   18 ar   
    11   16   20 ar   
    12   18   22 ar   
    13   20   22 ar   
    14   23   24 ar   
    15   23   25 ar   
    16   23   28 1    
    17   28   30 1    
    18   30   31 1    
    19   30   35 1    
    20   31   32 2    
    21   31   47 am   
    22   35   37 1    
    23   37   41 1    
    24   37   45 1    
    25   47   49 1    
    26   49   50 1    
    27   49   55 1    
    28   50   51 ar   
    29   50   56 ar   
    30   55   52 1    
    31   55   53 1    
    32   55   54 1    
    33   49   48 1    
    34   47   46 1    
    35   45   42 1    
    36   45   43 1    
    37   45   44 1    
    38   41   38 1    
    39   41   39 1    
    40   41   40 1    
    41   37   36 1    
    42   35   33 1    
    43   35   34 1    
    44   30   29 1    
    45   28   26 1    
    46   28   27 1    
    47   22   21 1    
    48   20   19 1    
    49   18   17 1    
    50   16   15 1    
    51   14   13 1    
    52   11    9 1    
    53   11   10 1    
    54    6    4 1    
    55    6    5 1    
    56    3    2 1    
@<TRIPOS>SUBSTRUCTURE
     1 MAIN        1 PERM              0 ****  ****    0 ROOT 
@<TRIPOS>NORMAL
@<TRIPOS>ALT_TYPE
MMFF94_ALT_TYPE_SET 
MMFF94 1 COO 2 HNCO 3 NC=O 4 HC 5 HC 6 CR 7 O=CN 8 OC=O 9 HC 10 HC 11 CR \
12 CB 13 HC 14 CB 15 HC 16 CB 17 HC 18 CB 19 HC 20 CB \
21 HC 22 CB 23 PO2 24 O2P 25 O2P 26 HC 27 HC 28 CR 29 HC \
30 CR 31 C=ON 32 O=CN 33 HC 34 HC 35 CR 36 HC 37 CR 38 HC \
39 HC 40 HC 41 CR 42 HC 43 HC 44 HC 45 CR 46 HNCO 47 NC=O \
48 HC 49 CR 50 CO2M 51 O2CM 52 HC 53 HC 54 HC 55 CR \
56 O2CM 
@<TRIPOS>FF_PBC
FORCE_FIELD_SETUP_FEATURE Force Field Setup information
v1.0  0 0.000000 0.000000 0.000000 0.000000 0.000000 0.000000 NONE 0 0 0 0 0 0 0 0 0 0 0 0 0
