#	Name:			zgpcllzncrys_min
#	Creating user name:	jeff
#	Creation time:		Thu Dec 19 11:49:54 2002

#	Modifying user name:	jeff
#	Modification time:	Thu Dec 19 11:49:54 2002

@<TRIPOS>MOLECULE
zgpcllzncrys_min
   65    65     1     2     0
SMALL
GASTEIGER


@<TRIPOS>ATOM
      1 C2          0.260000   -4.643000   -0.826000 C.2       1 MAIN        0.352850 
      2 O3          1.484000   -4.515000   -0.675000 O.2       1 MAIN       -0.241345 
      3 O4         -0.410000   -5.750000   -0.431000 O.3       1 MAIN       -0.295145 
      4 H52         1.119000   -7.127000   -0.427000 H         1 MAIN        0.061655 
      5 H51         0.720000   -6.415000    1.155000 H         1 MAIN        0.061655 
      6 C5          0.308000   -6.787000    0.217000 C.3       1 MAIN        0.083653 
      7 C6         -0.620000   -7.924000    0.494000 C.ar      1 MAIN       -0.021282 
      8 H7          0.316000   -9.241000   -0.936000 H         1 MAIN        0.062101 
      9 C7         -0.476000   -9.131000   -0.194000 C.ar      1 MAIN       -0.056372 
     10 H32        -1.222000  -11.134000   -0.475000 H         1 MAIN        0.061767 
     11 C32        -1.339000  -10.193000    0.063000 C.ar      1 MAIN       -0.061429 
     12 H8         -1.758000   -6.839000    1.964000 H         1 MAIN        0.062101 
     13 C8         -1.639000   -7.782000    1.432000 C.ar      1 MAIN       -0.056372 
     14 H10        -3.304000   -8.730000    2.431000 H         1 MAIN        0.061767 
     15 C10        -2.508000   -8.844000    1.695000 C.ar      1 MAIN       -0.061429 
     16 H11        -3.027000  -10.881000    1.219000 H         1 MAIN        0.061758 
     17 C11        -2.354000  -10.049000    1.012000 C.ar      1 MAIN       -0.061740 
     18 H12        -1.607000   -3.600000   -1.272000 H         1 MAIN        0.151356 
     19 N12        -0.525000   -3.650000   -1.402000 N.am      1 MAIN       -0.286080 
     20 H132        0.668000   -1.944000   -1.523000 H         1 MAIN        0.052556 
     21 H131        1.022000   -3.205000   -2.728000 H         1 MAIN        0.052556 
     22 C13         0.229000   -2.676000   -2.200000 C.3       1 MAIN        0.050069 
     23 P14        -0.776000   -1.796000   -3.416000 P.3       1 MAIN        0.018076 
     24 O15         0.097000   -0.989000   -4.296000 O.co2     1 MAIN       -0.554343 
     25 O16        -1.593000   -2.893000   -4.330000 O.co2     1 MAIN       -0.554343 
     26 H172       -2.918000   -1.020000   -2.684000 H         1 MAIN        0.033397 
     27 H171       -1.658000   -0.743000   -1.456000 H         1 MAIN        0.033397 
     28 C17        -1.890000   -0.696000   -2.521000 C.3       1 MAIN       -0.003848 
     29 H18        -1.724000    0.753000   -4.094000 H         1 MAIN        0.039799 
     30 C18        -1.738000    0.759000   -3.004000 C.3       1 MAIN        0.040960 
     31 C19        -0.450000    1.355000   -2.512000 C.2       1 MAIN        0.216988 
     32 O20         0.348000    1.980000   -3.217000 O.2       1 MAIN       -0.275486 
     33 H212       -3.850000    1.161000   -2.879000 H         1 MAIN        0.027508 
     34 H211       -2.925000    1.630000   -1.433000 H         1 MAIN        0.027508 
     35 C21        -2.922000    1.607000   -2.522000 C.3       1 MAIN       -0.039213 
     36 H22        -1.796000    3.388000   -2.884000 H         1 MAIN        0.029568 
     37 C22        -2.816000    3.042000   -3.055000 C.3       1 MAIN       -0.046020 
     38 H233       -2.998000    4.133000   -4.910000 H         1 MAIN        0.023233 
     39 H232       -2.350000    2.485000   -5.089000 H         1 MAIN        0.023233 
     40 H231       -4.085000    2.730000   -4.775000 H         1 MAIN        0.023233 
     41 C23        -3.082000    3.102000   -4.567000 C.3       1 MAIN       -0.062645 
     42 H243       -3.695000    4.973000   -2.696000 H         1 MAIN        0.023233 
     43 H242       -4.802000    3.602000   -2.446000 H         1 MAIN        0.023233 
     44 H241       -3.537000    3.955000   -1.245000 H         1 MAIN        0.023233 
     45 C24        -3.782000    3.959000   -2.307000 C.3       1 MAIN       -0.062645 
     46 H25        -0.855000    0.654000   -0.504000 H         1 MAIN        0.149331 
     47 N25        -0.172000    1.191000   -1.162000 N.am      1 MAIN       -0.307096 
     48 H26         1.642000    2.097000   -1.530000 H         1 MAIN        0.055997 
     49 C26         1.081000    1.771000   -0.654000 C.3       1 MAIN        0.062828 
     50 C27         1.959000    0.758000    0.027000 C.2       1 MAIN        0.061952 
     51 O28         1.574000   -0.059000    0.858000 O.co2     1 MAIN       -0.547898 
     52 H292        1.808000    3.370000    0.589000 H         1 MAIN        0.028918 
     53 H291        0.451000    3.821000   -0.471000 H         1 MAIN        0.028918 
     54 C29         0.849000    3.046000    0.185000 C.3       1 MAIN       -0.026887 
     55 H30        -0.067000    1.817000    1.687000 H         1 MAIN        0.029616 
     56 C30        -0.132000    2.854000    1.358000 C.3       1 MAIN       -0.044701 
     57 H313       -0.455000    3.639000    3.339000 H         1 MAIN        0.023234 
     58 H312        1.255000    3.553000    2.852000 H         1 MAIN        0.023234 
     59 H311        0.200000    4.819000    2.178000 H         1 MAIN        0.023234 
     60 C31         0.244000    3.783000    2.515000 C.3       1 MAIN       -0.062597 
     61 H323       -2.247000    3.000000    1.765000 H         1 MAIN        0.023234 
     62 H322       -1.647000    4.172000    0.566000 H         1 MAIN        0.023234 
     63 H321       -1.852000    2.462000    0.115000 H         1 MAIN        0.023234 
     64 C32        -1.574000    3.143000    0.919000 C.3       1 MAIN       -0.062597 
     65 O33         3.263000    0.792000   -0.318000 O.co2     1 MAIN       -0.547898 
@<TRIPOS>BOND
     1    1   19 am   
     2    1    2 2    
     3    1    3 1    
     4    3    6 1    
     5    6    7 1    
     6    7    9 ar   
     7    7   13 ar   
     8    9   11 ar   
     9   11   17 ar   
    10   13   15 ar   
    11   15   17 ar   
    12   19   22 1    
    13   22   23 1    
    14   23   28 1    
    15   23   24 ar   
    16   23   25 ar   
    17   28   30 1    
    18   30   31 1    
    19   30   35 1    
    20   31   32 2    
    21   31   47 am   
    22   35   37 1    
    23   37   41 1    
    24   37   45 1    
    25   47   49 1    
    26   49   50 1    
    27   49   54 1    
    28   50   51 ar   
    29   50   65 ar   
    30   54   56 1    
    31   56   60 1    
    32   56   64 1    
    33   64   61 1    
    34   64   62 1    
    35   64   63 1    
    36   60   57 1    
    37   60   58 1    
    38   60   59 1    
    39   56   55 1    
    40   54   52 1    
    41   54   53 1    
    42   49   48 1    
    43   47   46 1    
    44   45   42 1    
    45   45   43 1    
    46   45   44 1    
    47   41   38 1    
    48   41   39 1    
    49   41   40 1    
    50   37   36 1    
    51   35   33 1    
    52   35   34 1    
    53   30   29 1    
    54   28   26 1    
    55   28   27 1    
    56   22   20 1    
    57   22   21 1    
    58   19   18 1    
    59   17   16 1    
    60   15   14 1    
    61   13   12 1    
    62   11   10 1    
    63    9    8 1    
    64    6    4 1    
    65    6    5 1    
@<TRIPOS>SUBSTRUCTURE
     1 MAIN        1 PERM              0 ****  ****    0 ROOT 
@<TRIPOS>NORMAL
@<TRIPOS>ALT_TYPE
MMFF94_ALT_TYPE_SET 
MMFF94 1 COO 2 O=CN 3 OC=O 4 HC 5 HC 6 CR 7 CB 8 HC 9 CB 10 HC 11 CB \
12 HC 13 CB 14 HC 15 CB 16 HC 17 CB 18 HNCO 19 NC=O 20 HC \
21 HC 22 CR 23 PO2 24 O2P 25 O2P 26 HC 27 HC 28 CR 29 HC \
30 CR 31 C=ON 32 O=CN 33 HC 34 HC 35 CR 36 HC 37 CR 38 HC \
39 HC 40 HC 41 CR 42 HC 43 HC 44 HC 45 CR 46 HNCO 47 NC=O \
48 HC 49 CR 50 CO2M 51 O2CM 52 HC 53 HC 54 CR 55 HC \
56 CR 57 HC 58 HC 59 HC 60 CR 61 HC 62 HC 63 HC 64 CR \
65 O2CM 
@<TRIPOS>FF_PBC
FORCE_FIELD_SETUP_FEATURE Force Field Setup information
v1.0  0 0.000000 0.000000 0.000000 0.000000 0.000000 0.000000 NONE 0 0 0 0 0 0 0 0 0 0 0 0 0
