#	Name:			zgpclnh2_min
#	Creating user name:	jeff
#	Creation time:		Thu Dec 19 11:49:54 2002

#	Modifying user name:	jeff
#	Modification time:	Thu Dec 19 11:49:54 2002

@<TRIPOS>MOLECULE
zgpclnh2_min
   48    48     1     2     0
SMALL
GASTEIGER


@<TRIPOS>ATOM
      1 C1          0.120000   -4.760000   -0.871000 C.2       1 MAIN        0.352850 
      2 H2         -1.701000   -3.940000   -1.751000 H         1 MAIN        0.151356 
      3 N2         -0.623000   -3.846000   -1.622000 N.am      1 MAIN       -0.286080 
      4 H32         0.482000   -2.089000   -1.426000 H         1 MAIN        0.052556 
      5 H31         1.015000   -3.181000   -2.728000 H         1 MAIN        0.052556 
      6 C3          0.148000   -2.750000   -2.225000 C.3       1 MAIN        0.050069 
      7 O5          1.347000   -4.666000   -0.763000 O.2       1 MAIN       -0.241345 
      8 O6         -0.567000   -5.757000   -0.255000 O.3       1 MAIN       -0.295145 
      9 H72         1.179000   -6.773000    0.139000 H         1 MAIN        0.061655 
     10 H71         0.382000   -6.039000    1.550000 H         1 MAIN        0.061655 
     11 C7          0.219000   -6.573000    0.614000 C.3       1 MAIN        0.083653 
     12 C8         -0.460000   -7.880000    0.911000 C.ar      1 MAIN       -0.021282 
     13 H9          0.435000   -8.915000   -0.752000 H         1 MAIN        0.062101 
     14 C9         -0.240000   -8.991000    0.100000 C.ar      1 MAIN       -0.056372 
     15 H10        -1.493000   -7.123000    2.645000 H         1 MAIN        0.062101 
     16 C10        -1.320000   -7.988000    2.004000 C.ar      1 MAIN       -0.056372 
     17 H11        -0.705000  -11.067000   -0.262000 H         1 MAIN        0.061767 
     18 C11        -0.880000  -10.201000    0.375000 C.ar      1 MAIN       -0.061429 
     19 H12        -2.633000   -9.272000    3.136000 H         1 MAIN        0.061767 
     20 C12        -1.961000   -9.195000    2.281000 C.ar      1 MAIN       -0.061429 
     21 H13        -2.244000  -11.246000    1.677000 H         1 MAIN        0.061758 
     22 C13        -1.742000  -10.302000    1.463000 C.ar      1 MAIN       -0.061740 
     23 P14        -0.773000   -1.765000   -3.429000 P.3       1 MAIN        0.018076 
     24 O15         0.162000   -0.945000   -4.225000 O.co2     1 MAIN       -0.554343 
     25 O16        -1.575000   -2.768000   -4.459000 O.co2     1 MAIN       -0.554343 
     26 H172       -2.918000   -1.002000   -2.692000 H         1 MAIN        0.033397 
     27 H171       -1.656000   -0.708000   -1.471000 H         1 MAIN        0.033397 
     28 C17        -1.892000   -0.669000   -2.535000 C.3       1 MAIN       -0.003855 
     29 H18        -1.709000    0.770000   -4.115000 H         1 MAIN        0.039792 
     30 C18        -1.755000    0.784000   -3.026000 C.3       1 MAIN        0.040739 
     31 C19        -0.495000    1.408000   -2.493000 C.2       1 MAIN        0.213959 
     32 O20         0.313000    2.035000   -3.189000 O.2       1 MAIN       -0.275717 
     33 H212       -3.880000    1.111000   -2.896000 H         1 MAIN        0.027508 
     34 H211       -2.956000    1.710000   -1.497000 H         1 MAIN        0.027508 
     35 C21        -2.965000    1.614000   -2.583000 C.3       1 MAIN       -0.039220 
     36 H22        -1.897000    3.389000   -3.125000 H         1 MAIN        0.029568 
     37 C22        -2.917000    3.014000   -3.213000 C.3       1 MAIN       -0.046020 
     38 H233       -3.228000    3.962000   -5.125000 H         1 MAIN        0.023233 
     39 H232       -2.557000    2.317000   -5.222000 H         1 MAIN        0.023233 
     40 H231       -4.275000    2.555000   -4.824000 H         1 MAIN        0.023233 
     41 C23        -3.270000    2.958000   -4.704000 C.3       1 MAIN       -0.062645 
     42 H243       -3.796000    4.961000   -2.931000 H         1 MAIN        0.023233 
     43 H242       -4.868000    3.603000   -2.513000 H         1 MAIN        0.023233 
     44 H241       -3.532000    4.048000   -1.425000 H         1 MAIN        0.023233 
     45 C24        -3.845000    3.976000   -2.467000 C.3       1 MAIN       -0.062645 
     46 H252        0.609000    1.691000   -0.664000 H         1 MAIN        0.144938 
     47 H251       -1.009000    0.729000   -0.513000 H         1 MAIN        0.144938 
     48 N25        -0.283000    1.266000   -1.124000 N.am      1 MAIN       -0.329085 
@<TRIPOS>BOND
     1    1    3 am   
     2    1    7 2    
     3    1    8 1    
     4    3    6 1    
     5    6   23 1    
     6    8   11 1    
     7   11   12 1    
     8   12   14 ar   
     9   12   16 ar   
    10   14   18 ar   
    11   16   20 ar   
    12   18   22 ar   
    13   20   22 ar   
    14   23   24 ar   
    15   23   25 ar   
    16   23   28 1    
    17   28   30 1    
    18   30   31 1    
    19   30   35 1    
    20   31   32 2    
    21   31   48 am   
    22   35   37 1    
    23   37   41 1    
    24   37   45 1    
    25   48   46 1    
    26   48   47 1    
    27   45   42 1    
    28   45   43 1    
    29   45   44 1    
    30   41   38 1    
    31   41   39 1    
    32   41   40 1    
    33   37   36 1    
    34   35   33 1    
    35   35   34 1    
    36   30   29 1    
    37   28   26 1    
    38   28   27 1    
    39   22   21 1    
    40   20   19 1    
    41   18   17 1    
    42   16   15 1    
    43   14   13 1    
    44   11    9 1    
    45   11   10 1    
    46    6    4 1    
    47    6    5 1    
    48    3    2 1    
@<TRIPOS>SUBSTRUCTURE
     1 MAIN        1 PERM              0 ****  ****    0 ROOT 
@<TRIPOS>NORMAL
@<TRIPOS>ALT_TYPE
MMFF94_ALT_TYPE_SET 
MMFF94 1 COO 2 HNCO 3 NC=O 4 HC 5 HC 6 CR 7 O=CN 8 OC=O 9 HC 10 HC 11 CR \
12 CB 13 HC 14 CB 15 HC 16 CB 17 HC 18 CB 19 HC 20 CB \
21 HC 22 CB 23 PO2 24 O2P 25 O2P 26 HC 27 HC 28 CR 29 HC \
30 CR 31 C=ON 32 O=CN 33 HC 34 HC 35 CR 36 HC 37 CR 38 HC \
39 HC 40 HC 41 CR 42 HC 43 HC 44 HC 45 CR 46 HNCO 47 HNCO \
48 NC=O 
@<TRIPOS>FF_PBC
FORCE_FIELD_SETUP_FEATURE Force Field Setup information
v1.0  0 0.000000 0.000000 0.000000 0.000000 0.000000 0.000000 NONE 0 0 0 0 0 0 0 0 0 0 0 0 0
