#	Name:			zgpclg_min
#	Creating user name:	jeff
#	Creation time:		Thu Dec 19 11:49:54 2002

#	Modifying user name:	jeff
#	Modification time:	Thu Dec 19 11:49:54 2002

@<TRIPOS>MOLECULE
zgpclg_min
   53    53     1     2     0
SMALL
GASTEIGER


@<TRIPOS>ATOM
      1 C1          0.095000   -4.715000   -0.883000 C.2       1 MAIN        0.352850 
      2 H2         -1.727000   -3.797000   -1.639000 H         1 MAIN        0.151356 
      3 N2         -0.643000   -3.740000   -1.549000 N.am      1 MAIN       -0.286080 
      4 H32         0.380000   -1.923000   -1.328000 H         1 MAIN        0.052556 
      5 H31         1.046000   -3.021000   -2.561000 H         1 MAIN        0.052556 
      6 C3          0.129000   -2.625000   -2.123000 C.3       1 MAIN        0.050069 
      7 O5          1.327000   -4.658000   -0.799000 O.2       1 MAIN       -0.241345 
      8 O6         -0.603000   -5.731000   -0.321000 O.3       1 MAIN       -0.295145 
      9 H72         1.089000   -6.882000   -0.141000 H         1 MAIN        0.061655 
     10 H71         0.408000   -6.269000    1.385000 H         1 MAIN        0.061655 
     11 C7          0.168000   -6.682000    0.405000 C.3       1 MAIN        0.083653 
     12 C8         -0.581000   -7.968000    0.587000 C.ar      1 MAIN       -0.021282 
     13 H9          0.390000   -8.952000   -1.066000 H         1 MAIN        0.062101 
     14 C9         -0.338000   -9.047000   -0.261000 C.ar      1 MAIN       -0.056372 
     15 H10        -1.713000   -7.247000    2.273000 H         1 MAIN        0.062101 
     16 C10        -1.517000   -8.092000    1.611000 C.ar      1 MAIN       -0.056372 
     17 H11        -0.830000  -11.089000   -0.747000 H         1 MAIN        0.061767 
     18 C11        -1.022000  -10.247000   -0.083000 C.ar      1 MAIN       -0.061429 
     19 H12        -2.935000   -9.385000    2.594000 H         1 MAIN        0.061767 
     20 C12        -2.203000   -9.290000    1.792000 C.ar      1 MAIN       -0.061429 
     21 H13        -2.490000  -11.306000    1.088000 H         1 MAIN        0.061758 
     22 C13        -1.955000  -10.368000    0.946000 C.ar      1 MAIN       -0.061740 
     23 P14        -0.802000   -1.748000   -3.407000 P.3       1 MAIN        0.018076 
     24 O15         0.105000   -0.966000   -4.281000 O.co2     1 MAIN       -0.554343 
     25 O16        -1.599000   -2.848000   -4.344000 O.co2     1 MAIN       -0.554343 
     26 H172       -2.962000   -0.937000   -2.773000 H         1 MAIN        0.033397 
     27 H171       -1.757000   -0.686000   -1.487000 H         1 MAIN        0.033397 
     28 C17        -1.939000   -0.628000   -2.560000 C.3       1 MAIN       -0.003848 
     29 H18        -1.691000    0.841000   -4.106000 H         1 MAIN        0.039799 
     30 C18        -1.754000    0.828000   -3.018000 C.3       1 MAIN        0.040953 
     31 C19        -0.483000    1.405000   -2.455000 C.2       1 MAIN        0.216791 
     32 O20         0.356000    2.016000   -3.128000 O.2       1 MAIN       -0.275493 
     33 H212       -3.872000    1.217000   -2.931000 H         1 MAIN        0.027508 
     34 H211       -2.973000    1.711000   -1.476000 H         1 MAIN        0.027508 
     35 C21        -2.952000    1.674000   -2.565000 C.3       1 MAIN       -0.039213 
     36 H22        -1.843000    3.470000   -2.911000 H         1 MAIN        0.029568 
     37 C22        -2.849000    3.104000   -3.115000 C.3       1 MAIN       -0.046020 
     38 H233       -2.980000    4.153000   -4.998000 H         1 MAIN        0.023233 
     39 H232       -2.298000    2.513000   -5.117000 H         1 MAIN        0.023233 
     40 H231       -4.047000    2.734000   -4.873000 H         1 MAIN        0.023233 
     41 C23        -3.059000    3.128000   -4.636000 C.3       1 MAIN       -0.062645 
     42 H243       -3.754000    5.038000   -2.819000 H         1 MAIN        0.023233 
     43 H242       -4.859000    3.664000   -2.576000 H         1 MAIN        0.023233 
     44 H241       -3.634000    4.049000   -1.344000 H         1 MAIN        0.023233 
     45 C24        -3.846000    4.030000   -2.413000 C.3       1 MAIN       -0.062645 
     46 H25        -1.074000    0.708000   -0.510000 H         1 MAIN        0.149067 
     47 N25        -0.315000    1.244000   -1.081000 N.am      1 MAIN       -0.309813 
     48 H262        1.388000    2.474000   -1.045000 H         1 MAIN        0.052330 
     49 H261        0.543000    2.310000    0.513000 H         1 MAIN        0.052330 
     50 C26         0.868000    1.782000   -0.383000 C.3       1 MAIN        0.051180 
     51 C27         1.808000    0.679000    0.011000 C.2       1 MAIN        0.058801 
     52 O28         1.514000   -0.249000    0.757000 O.co2     1 MAIN       -0.548197 
     53 O29         3.059000    0.754000   -0.487000 O.co2     1 MAIN       -0.548197 
@<TRIPOS>BOND
     1    1    3 am   
     2    1    7 2    
     3    1    8 1    
     4    3    6 1    
     5    6   23 1    
     6    8   11 1    
     7   11   12 1    
     8   12   14 ar   
     9   12   16 ar   
    10   14   18 ar   
    11   16   20 ar   
    12   18   22 ar   
    13   20   22 ar   
    14   23   24 ar   
    15   23   25 ar   
    16   23   28 1    
    17   28   30 1    
    18   30   31 1    
    19   30   35 1    
    20   31   32 2    
    21   31   47 am   
    22   35   37 1    
    23   37   41 1    
    24   37   45 1    
    25   47   50 1    
    26   50   51 1    
    27   51   53 ar   
    28   51   52 ar   
    29   50   48 1    
    30   50   49 1    
    31   47   46 1    
    32   45   42 1    
    33   45   43 1    
    34   45   44 1    
    35   41   38 1    
    36   41   39 1    
    37   41   40 1    
    38   37   36 1    
    39   35   33 1    
    40   35   34 1    
    41   30   29 1    
    42   28   26 1    
    43   28   27 1    
    44   22   21 1    
    45   20   19 1    
    46   18   17 1    
    47   16   15 1    
    48   14   13 1    
    49   11    9 1    
    50   11   10 1    
    51    6    4 1    
    52    6    5 1    
    53    3    2 1    
@<TRIPOS>SUBSTRUCTURE
     1 MAIN        1 PERM              0 ****  ****    0 ROOT 
@<TRIPOS>NORMAL
@<TRIPOS>ALT_TYPE
MMFF94_ALT_TYPE_SET 
MMFF94 1 COO 2 HNCO 3 NC=O 4 HC 5 HC 6 CR 7 O=CN 8 OC=O 9 HC 10 HC 11 CR \
12 CB 13 HC 14 CB 15 HC 16 CB 17 HC 18 CB 19 HC 20 CB \
21 HC 22 CB 23 PO2 24 O2P 25 O2P 26 HC 27 HC 28 CR 29 HC \
30 CR 31 C=ON 32 O=CN 33 HC 34 HC 35 CR 36 HC 37 CR 38 HC \
39 HC 40 HC 41 CR 42 HC 43 HC 44 HC 45 CR 46 HNCO 47 NC=O \
48 HC 49 HC 50 CR 51 CO2M 52 O2CM 53 O2CM 
@<TRIPOS>FF_PBC
FORCE_FIELD_SETUP_FEATURE Force Field Setup information
v1.0  0 0.000000 0.000000 0.000000 0.000000 0.000000 0.000000 NONE 0 0 0 0 0 0 0 0 0 0 0 0 0
