#	Name:			zgpllzncrys_min
#	Creating user name:	jeff
#	Creation time:		Thu Dec 19 11:49:55 2002

#	Modifying user name:	jeff
#	Modification time:	Thu Dec 19 11:49:55 2002

@<TRIPOS>MOLECULE
zgpllzncrys_min
   64    64     1     2     0
SMALL
GASTEIGER


@<TRIPOS>ATOM
      1 C2          0.181000   -4.618000   -1.011000 C.2       1 MAIN        0.352894 
      2 O3          1.407000   -4.450000   -0.952000 O.2       1 MAIN       -0.241345 
      3 O4         -0.406000   -5.767000   -0.585000 O.3       1 MAIN       -0.295145 
      4 H52         1.083000   -7.152000   -0.890000 H         1 MAIN        0.061655 
      5 H51         1.091000   -6.350000    0.699000 H         1 MAIN        0.061655 
      6 C5          0.459000   -6.782000   -0.077000 C.3       1 MAIN        0.083653 
      7 C6         -0.310000   -7.931000    0.507000 C.ar      1 MAIN       -0.021282 
      8 H7         -1.171000   -6.788000    2.120000 H         1 MAIN        0.062101 
      9 C7         -1.098000   -7.767000    1.645000 C.ar      1 MAIN       -0.056372 
     10 H8          0.404000   -9.319000   -0.977000 H         1 MAIN        0.062101 
     11 C8         -0.216000   -9.187000   -0.090000 C.ar      1 MAIN       -0.056372 
     12 H9         -2.407000   -8.722000    3.069000 H         1 MAIN        0.061767 
     13 C9         -1.793000   -8.853000    2.178000 C.ar      1 MAIN       -0.061429 
     14 H10        -0.832000  -11.253000   -0.034000 H         1 MAIN        0.061767 
     15 C10        -0.910000  -10.274000    0.438000 C.ar      1 MAIN       -0.061429 
     16 H11        -2.255000  -10.952000    1.982000 H         1 MAIN        0.061758 
     17 C11        -1.704000  -10.105000    1.571000 C.ar      1 MAIN       -0.061740 
     18 H12        -1.764000   -3.745000   -1.487000 H         1 MAIN        0.151413 
     19 N12        -0.680000   -3.633000   -1.502000 N.am      1 MAIN       -0.284632 
     20 H132        0.059000   -1.694000   -1.242000 H         1 MAIN        0.054053 
     21 H131        0.981000   -2.711000   -2.375000 H         1 MAIN        0.054053 
     22 C13        -0.018000   -2.431000   -2.041000 C.3       1 MAIN        0.065257 
     23 P14        -0.893000   -1.669000   -3.439000 P.3       1 MAIN        0.089214 
     24 O15         0.091000   -0.975000   -4.303000 O.co2     1 MAIN       -0.536354 
     25 O16        -1.615000   -2.846000   -4.343000 O.co2     1 MAIN       -0.536354 
     26 H17        -3.014000   -0.827000   -3.197000 H         1 MAIN        0.146673 
     27 N17        -2.037000   -0.550000   -2.802000 N.am      1 MAIN       -0.326654 
     28 H18        -1.822000    0.999000   -4.167000 H         1 MAIN        0.059344 
     29 C18        -1.842000    0.892000   -3.083000 C.3       1 MAIN        0.097529 
     30 C19        -0.529000    1.401000   -2.541000 C.2       1 MAIN        0.233751 
     31 O20         0.304000    2.011000   -3.219000 O.2       1 MAIN       -0.273767 
     32 H212       -3.943000    1.343000   -2.919000 H         1 MAIN        0.029026 
     33 H211       -3.005000    1.668000   -1.442000 H         1 MAIN        0.029026 
     34 C21        -3.002000    1.731000   -2.530000 C.3       1 MAIN       -0.023732 
     35 H22        -1.840000    3.524000   -2.681000 H         1 MAIN        0.029618 
     36 C22        -2.845000    3.202000   -2.954000 C.3       1 MAIN       -0.044593 
     37 H233       -2.880000    4.405000   -4.743000 H         1 MAIN        0.023234 
     38 H232       -2.230000    2.764000   -4.974000 H         1 MAIN        0.023234 
     39 H231       -3.982000    3.007000   -4.776000 H         1 MAIN        0.023234 
     40 C23        -2.995000    3.355000   -4.471000 C.3       1 MAIN       -0.062595 
     41 H243       -3.715000    5.127000   -2.531000 H         1 MAIN        0.023234 
     42 H242       -4.860000    3.767000   -2.444000 H         1 MAIN        0.023234 
     43 H241       -3.675000    4.016000   -1.140000 H         1 MAIN        0.023234 
     44 C24        -3.846000    4.092000   -2.214000 C.3       1 MAIN       -0.062595 
     45 H25        -0.964000    0.687000   -0.541000 H         1 MAIN        0.149380 
     46 N25        -0.259000    1.201000   -1.193000 N.am      1 MAIN       -0.305812 
     47 H26         1.589000    2.013000   -1.572000 H         1 MAIN        0.055998 
     48 C26         1.030000    1.720000   -0.683000 C.3       1 MAIN        0.062877 
     49 C27         1.864000    0.668000   -0.005000 C.2       1 MAIN        0.061952 
     50 O28         1.442000   -0.154000    0.800000 O.co2     1 MAIN       -0.547898 
     51 H292        1.874000    3.279000    0.539000 H         1 MAIN        0.028918 
     52 H291        0.531000    3.807000   -0.502000 H         1 MAIN        0.028918 
     53 C29         0.892000    3.012000    0.151000 C.3       1 MAIN       -0.026887 
     54 H30        -0.083000    1.831000    1.648000 H         1 MAIN        0.029616 
     55 C30        -0.080000    2.876000    1.336000 C.3       1 MAIN       -0.044701 
     56 H313       -0.322000    3.638000    3.338000 H         1 MAIN        0.023234 
     57 H312        1.371000    3.434000    2.829000 H         1 MAIN        0.023234 
     58 H311        0.409000    4.791000    2.196000 H         1 MAIN        0.023234 
     59 C31         0.378000    3.748000    2.510000 C.3       1 MAIN       -0.062597 
     60 H323       -2.173000    3.168000    1.776000 H         1 MAIN        0.023234 
     61 H322       -1.509000    4.307000    0.581000 H         1 MAIN        0.023234 
     62 H321       -1.842000    2.622000    0.114000 H         1 MAIN        0.023234 
     63 C32        -1.504000    3.272000    0.922000 C.3       1 MAIN       -0.062597 
     64 O33         3.180000    0.665000   -0.305000 O.co2     1 MAIN       -0.547898 
@<TRIPOS>BOND
     1    1   19 am   
     2    1    2 2    
     3    1    3 1    
     4    3    6 1    
     5    6    7 1    
     6    7    9 ar   
     7    7   11 ar   
     8    9   13 ar   
     9   11   15 ar   
    10   13   17 ar   
    11   15   17 ar   
    12   19   22 1    
    13   22   23 1    
    14   23   27 1    
    15   23   24 ar   
    16   23   25 ar   
    17   27   29 1    
    18   29   30 1    
    19   29   34 1    
    20   30   31 2    
    21   30   46 am   
    22   34   36 1    
    23   36   40 1    
    24   36   44 1    
    25   46   48 1    
    26   48   49 1    
    27   48   53 1    
    28   49   50 ar   
    29   49   64 ar   
    30   53   55 1    
    31   55   59 1    
    32   55   63 1    
    33   63   60 1    
    34   63   61 1    
    35   63   62 1    
    36   59   56 1    
    37   59   57 1    
    38   59   58 1    
    39   55   54 1    
    40   53   51 1    
    41   53   52 1    
    42   48   47 1    
    43   46   45 1    
    44   44   41 1    
    45   44   42 1    
    46   44   43 1    
    47   40   37 1    
    48   40   38 1    
    49   40   39 1    
    50   36   35 1    
    51   34   32 1    
    52   34   33 1    
    53   29   28 1    
    54   27   26 1    
    55   22   20 1    
    56   22   21 1    
    57   19   18 1    
    58   17   16 1    
    59   15   14 1    
    60   13   12 1    
    61   11   10 1    
    62    9    8 1    
    63    6    4 1    
    64    6    5 1    
@<TRIPOS>SUBSTRUCTURE
     1 MAIN        1 PERM              0 ****  ****    0 ROOT 
@<TRIPOS>NORMAL
@<TRIPOS>ALT_TYPE
MMFF94_ALT_TYPE_SET 
MMFF94 1 COO 2 O=CN 3 OC=O 4 HC 5 HC 6 CR 7 CB 8 HC 9 CB 10 HC 11 CB \
12 HC 13 CB 14 HC 15 CB 16 HC 17 CB 18 HNCO 19 NC=O 20 HC \
21 HC 22 CR 23 PO2 24 O2P 25 O2P 26 HNPO 27 NPO2 28 HC \
29 CR 30 C=ON 31 O=CN 32 HC 33 HC 34 CR 35 HC 36 CR 37 HC \
38 HC 39 HC 40 CR 41 HC 42 HC 43 HC 44 CR 45 HNCO 46 NC=O \
47 HC 48 CR 49 CO2M 50 O2CM 51 HC 52 HC 53 CR 54 HC \
55 CR 56 HC 57 HC 58 HC 59 CR 60 HC 61 HC 62 HC 63 CR \
64 O2CM 
@<TRIPOS>FF_PBC
FORCE_FIELD_SETUP_FEATURE Force Field Setup information
v1.0  0 0.000000 0.000000 0.000000 0.000000 0.000000 0.000000 NONE 0 0 0 0 0 0 0 0 0 0 0 0 0
