#	Name:			zgplf_min
#	Creating user name:	jeff
#	Creation time:		Thu Dec 19 11:49:54 2002

#	Modifying user name:	jeff
#	Modification time:	Thu Dec 19 11:49:54 2002

@<TRIPOS>MOLECULE
zgplf_min
   65    66     1     2     0
SMALL
GASTEIGER


@<TRIPOS>ATOM
      1 C1          0.147000   -4.761000   -0.902000 C.2       1 MAIN        0.352894 
      2 H2         -1.752000   -4.007000   -1.656000 H         1 MAIN        0.151413 
      3 N2         -0.688000   -3.812000   -1.517000 N.am      1 MAIN       -0.284632 
      4 H32        -0.076000   -1.833000   -1.137000 H         1 MAIN        0.054053 
      5 H31         0.947000   -2.729000   -2.285000 H         1 MAIN        0.054053 
      6 C3         -0.078000   -2.532000   -1.972000 C.3       1 MAIN        0.065257 
      7 O5          1.371000   -4.609000   -0.818000 O.2       1 MAIN       -0.241345 
      8 O6         -0.436000   -5.873000   -0.377000 O.3       1 MAIN       -0.295145 
      9 H72         1.180000   -7.147000   -0.338000 H         1 MAIN        0.061655 
     10 H71         0.776000   -6.370000    1.211000 H         1 MAIN        0.061655 
     11 C7          0.366000   -6.835000    0.314000 C.3       1 MAIN        0.083653 
     12 C8         -0.424000   -8.056000    0.719000 C.ar      1 MAIN       -0.021282 
     13 H9          0.459000   -9.306000   -0.793000 H         1 MAIN        0.062101 
     14 C9         -0.254000   -9.254000    0.029000 C.ar      1 MAIN       -0.056372 
     15 H10        -1.503000   -7.071000    2.303000 H         1 MAIN        0.062101 
     16 C10        -1.350000   -8.006000    1.763000 C.ar      1 MAIN       -0.056372 
     17 H11        -0.846000  -11.320000   -0.169000 H         1 MAIN        0.061767 
     18 C11        -0.987000  -10.389000    0.380000 C.ar      1 MAIN       -0.061429 
     19 H12        -2.795000   -9.082000    2.942000 H         1 MAIN        0.061767 
     20 C12        -2.081000   -9.134000    2.121000 C.ar      1 MAIN       -0.061429 
     21 H13        -2.468000  -11.219000    1.711000 H         1 MAIN        0.061758 
     22 C13        -1.900000  -10.332000    1.430000 C.ar      1 MAIN       -0.061740 
     23 P14        -0.974000   -1.770000   -3.365000 P.3       1 MAIN        0.089214 
     24 O15        -0.033000   -1.133000   -4.330000 O.co2     1 MAIN       -0.536354 
     25 O16        -1.724000   -2.960000   -4.213000 O.co2     1 MAIN       -0.536354 
     26 H17        -3.052000   -0.835000   -3.120000 H         1 MAIN        0.146673 
     27 N17        -2.068000   -0.614000   -2.707000 N.am      1 MAIN       -0.326654 
     28 H18        -1.839000    0.962000   -4.021000 H         1 MAIN        0.059344 
     29 C18        -1.813000    0.832000   -2.939000 C.3       1 MAIN        0.097529 
     30 C19        -0.436000    1.277000   -2.493000 C.2       1 MAIN        0.233760 
     31 O20         0.331000    1.917000   -3.222000 O.2       1 MAIN       -0.273766 
     32 H212       -3.885000    1.266000   -2.540000 H         1 MAIN        0.029026 
     33 H211       -2.762000    1.804000   -1.267000 H         1 MAIN        0.029026 
     34 C21        -2.912000    1.718000   -2.344000 C.3       1 MAIN       -0.023732 
     35 H22        -1.849000    3.496000   -2.877000 H         1 MAIN        0.029618 
     36 C22        -2.864000    3.114000   -2.976000 C.3       1 MAIN       -0.044593 
     37 H233       -3.177000    4.041000   -4.902000 H         1 MAIN        0.023234 
     38 H232       -2.500000    2.396000   -4.981000 H         1 MAIN        0.023234 
     39 H231       -4.220000    2.633000   -4.588000 H         1 MAIN        0.023234 
     40 C23        -3.216000    3.041000   -4.470000 C.3       1 MAIN       -0.062595 
     41 H243       -3.758000    5.056000   -2.717000 H         1 MAIN        0.023234 
     42 H242       -4.830000    3.694000   -2.312000 H         1 MAIN        0.023234 
     43 H241       -3.515000    4.151000   -1.204000 H         1 MAIN        0.023234 
     44 C24        -3.810000    4.073000   -2.250000 C.3       1 MAIN       -0.062595 
     45 H25        -0.665000    0.544000   -0.454000 H         1 MAIN        0.149391 
     46 N25         0.008000    0.947000   -1.211000 N.am      1 MAIN       -0.305505 
     47 H26         1.934000    1.002000   -1.900000 H         1 MAIN        0.056314 
     48 C26         1.453000    1.179000   -0.938000 C.3       1 MAIN        0.066593 
     49 C27         2.053000    0.188000    0.019000 C.2       1 MAIN        0.062260 
     50 O28         1.410000   -0.527000    0.777000 O.co2     1 MAIN       -0.547888 
     51 H292        2.873000    2.773000   -0.652000 H         1 MAIN        0.033477 
     52 H291        1.283000    3.303000   -1.252000 H         1 MAIN        0.033477 
     53 C29         1.795000    2.633000   -0.562000 C.3       1 MAIN       -0.003914 
     54 C30         1.381000    2.975000    0.839000 C.ar      1 MAIN       -0.045254 
     55 H31        -0.651000    3.453000    0.301000 H         1 MAIN        0.062030 
     56 C31         0.076000    3.380000    1.110000 C.ar      1 MAIN       -0.058503 
     57 H32         3.329000    2.567000    1.668000 H         1 MAIN        0.062030 
     58 C32         2.307000    2.882000    1.878000 C.ar      1 MAIN       -0.058503 
     59 O33         3.404000    0.137000    0.052000 O.co2     1 MAIN       -0.547888 
     60 H34        -1.320000    4.010000    2.623000 H         1 MAIN        0.061766 
     61 C34        -0.299000    3.692000    2.414000 C.ar      1 MAIN       -0.061500 
     62 H35         2.655000    3.113000    3.993000 H         1 MAIN        0.061766 
     63 C35         1.930000    3.191000    3.182000 C.ar      1 MAIN       -0.061500 
     64 H36         0.328000    3.843000    4.470000 H         1 MAIN        0.061758 
     65 C36         0.625000    3.598000    3.451000 C.ar      1 MAIN       -0.061742 
@<TRIPOS>BOND
     1    1    3 am   
     2    1    7 2    
     3    1    8 1    
     4    3    6 1    
     5    6   23 1    
     6    8   11 1    
     7   11   12 1    
     8   12   14 ar   
     9   12   16 ar   
    10   14   18 ar   
    11   16   20 ar   
    12   18   22 ar   
    13   20   22 ar   
    14   23   24 ar   
    15   23   25 ar   
    16   23   27 1    
    17   27   29 1    
    18   29   30 1    
    19   29   34 1    
    20   30   46 am   
    21   30   31 2    
    22   34   36 1    
    23   36   40 1    
    24   36   44 1    
    25   46   48 1    
    26   48   49 1    
    27   48   53 1    
    28   49   50 ar   
    29   49   59 ar   
    30   53   54 1    
    31   54   56 ar   
    32   54   58 ar   
    33   56   61 ar   
    34   58   63 ar   
    35   61   65 ar   
    36   63   65 ar   
    37   65   64 1    
    38   63   62 1    
    39   61   60 1    
    40   58   57 1    
    41   56   55 1    
    42   53   51 1    
    43   53   52 1    
    44   48   47 1    
    45   46   45 1    
    46   44   41 1    
    47   44   42 1    
    48   44   43 1    
    49   40   37 1    
    50   40   38 1    
    51   40   39 1    
    52   36   35 1    
    53   34   32 1    
    54   34   33 1    
    55   29   28 1    
    56   27   26 1    
    57   22   21 1    
    58   20   19 1    
    59   18   17 1    
    60   16   15 1    
    61   14   13 1    
    62   11    9 1    
    63   11   10 1    
    64    6    4 1    
    65    6    5 1    
    66    3    2 1    
@<TRIPOS>SUBSTRUCTURE
     1 MAIN        1 PERM              0 ****  ****    0 ROOT 
@<TRIPOS>NORMAL
@<TRIPOS>ALT_TYPE
MMFF94_ALT_TYPE_SET 
MMFF94 1 COO 2 HNCO 3 NC=O 4 HC 5 HC 6 CR 7 O=CN 8 OC=O 9 HC 10 HC 11 CR \
12 CB 13 HC 14 CB 15 HC 16 CB 17 HC 18 CB 19 HC 20 CB \
21 HC 22 CB 23 PO2 24 O2P 25 O2P 26 HNPO 27 NPO2 28 HC \
29 CR 30 C=ON 31 O=CN 32 HC 33 HC 34 CR 35 HC 36 CR 37 HC \
38 HC 39 HC 40 CR 41 HC 42 HC 43 HC 44 CR 45 HNCO 46 NC=O \
47 HC 48 CR 49 CO2M 50 O2CM 51 HC 52 HC 53 CR 54 CB \
55 HC 56 CB 57 HC 58 CB 59 O2CM 60 HC 61 CB 62 HC 63 CB \
64 HC 65 CB 
@<TRIPOS>FF_PBC
FORCE_FIELD_SETUP_FEATURE Force Field Setup information
v1.0  0 0.000000 0.000000 0.000000 0.000000 0.000000 0.000000 NONE 0 0 0 0 0 0 0 0 0 0 0 0 0
