#	Name:			zgpla_min
#	Creating user name:	jeff
#	Creation time:		Thu Dec 19 11:49:54 2002

#	Modifying user name:	jeff
#	Modification time:	Thu Dec 19 11:49:54 2002

@<TRIPOS>MOLECULE
zgpla_min
   55    55     1     2     0
SMALL
GASTEIGER


@<TRIPOS>ATOM
      1 C1          0.258000   -4.557000   -1.133000 C.2       1 MAIN        0.352894 
      2 O2          1.475000   -4.477000   -1.337000 O.2       1 MAIN       -0.241345 
      3 O3         -0.279000   -5.618000   -0.483000 O.3       1 MAIN       -0.295145 
      4 H42         1.366000   -6.814000   -0.771000 H         1 MAIN        0.061655 
      5 H41         1.273000   -5.998000    0.808000 H         1 MAIN        0.061655 
      6 C4          0.699000   -6.511000    0.036000 C.3       1 MAIN        0.083653 
      7 C5          0.069000   -7.730000    0.629000 C.ar      1 MAIN       -0.021282 
      8 H6         -1.118000   -6.636000    2.058000 H         1 MAIN        0.062101 
      9 C6         -0.844000   -7.620000    1.678000 C.ar      1 MAIN       -0.056372 
     10 H7          1.133000   -9.079000   -0.670000 H         1 MAIN        0.062101 
     11 C7          0.419000   -8.989000    0.148000 C.ar      1 MAIN       -0.056372 
     12 H8         -2.121000   -8.673000    3.060000 H         1 MAIN        0.061767 
     13 C8         -1.407000   -8.763000    2.241000 C.ar      1 MAIN       -0.061429 
     14 H9          0.134000  -11.120000    0.329000 H         1 MAIN        0.061767 
     15 C9         -0.142000  -10.136000    0.709000 C.ar      1 MAIN       -0.061429 
     16 H10        -1.493000  -10.920000    2.197000 H         1 MAIN        0.061758 
     17 C10        -1.055000  -10.025000    1.757000 C.ar      1 MAIN       -0.061740 
     18 H11        -1.719000   -3.722000   -1.483000 H         1 MAIN        0.151413 
     19 N11        -0.641000   -3.567000   -1.522000 N.am      1 MAIN       -0.284632 
     20 H122       -0.109000   -1.576000   -1.176000 H         1 MAIN        0.054053 
     21 H121        0.988000   -2.478000   -2.249000 H         1 MAIN        0.054053 
     22 C12        -0.055000   -2.300000   -1.989000 C.3       1 MAIN        0.065257 
     23 P13        -0.893000   -1.597000   -3.437000 P.3       1 MAIN        0.089214 
     24 O14         0.112000   -0.932000   -4.298000 O.co2     1 MAIN       -0.536354 
     25 O15        -1.588000   -2.812000   -4.314000 O.co2     1 MAIN       -0.536354 
     26 H17        -3.018000   -0.748000   -3.301000 H         1 MAIN        0.146673 
     27 N17        -2.057000   -0.460000   -2.876000 N.am      1 MAIN       -0.326654 
     28 H18        -1.762000    1.054000   -4.273000 H         1 MAIN        0.059344 
     29 C18        -1.852000    0.977000   -3.190000 C.3       1 MAIN        0.097529 
     30 C19        -0.591000    1.491000   -2.557000 C.2       1 MAIN        0.233743 
     31 O20         0.288000    2.084000   -3.186000 O.2       1 MAIN       -0.273767 
     32 H212       -3.949000    1.485000   -3.254000 H         1 MAIN        0.029026 
     33 H211       -3.177000    1.752000   -1.672000 H         1 MAIN        0.029026 
     34 C21        -3.049000    1.840000   -2.751000 C.3       1 MAIN       -0.023732 
     35 H22        -1.811000    3.584000   -2.791000 H         1 MAIN        0.029618 
     36 C22        -2.817000    3.316000   -3.113000 C.3       1 MAIN       -0.044593 
     37 H233       -2.724000    4.588000   -4.855000 H         1 MAIN        0.023234 
     38 H232       -2.128000    2.932000   -5.122000 H         1 MAIN        0.023234 
     39 H231       -3.877000    3.238000   -4.992000 H         1 MAIN        0.023234 
     40 C23        -2.892000    3.534000   -4.631000 C.3       1 MAIN       -0.062595 
     41 H243       -3.615000    5.263000   -2.648000 H         1 MAIN        0.023234 
     42 H242       -4.822000    3.955000   -2.647000 H         1 MAIN        0.023234 
     43 H241       -3.670000    4.105000   -1.298000 H         1 MAIN        0.023234 
     44 C24        -3.802000    4.225000   -2.373000 C.3       1 MAIN       -0.062595 
     45 H25        -1.222000    0.743000   -0.637000 H         1 MAIN        0.149370 
     46 N25        -0.462000    1.300000   -1.185000 N.am      1 MAIN       -0.306088 
     47 H26         1.228000    2.528000   -1.150000 H         1 MAIN        0.055714 
     48 C26         0.706000    1.851000   -0.475000 C.3       1 MAIN        0.059838 
     49 C27         1.673000    0.766000   -0.095000 C.2       1 MAIN        0.061677 
     50 O28         1.417000   -0.165000    0.662000 O.co2     1 MAIN       -0.547908 
     51 H293        1.134000    3.054000    1.263000 H         1 MAIN        0.025109 
     52 H292       -0.382000    3.477000    0.433000 H         1 MAIN        0.025109 
     53 H291       -0.294000    2.005000    1.430000 H         1 MAIN        0.025109 
     54 C29         0.259000    2.655000    0.751000 C.3       1 MAIN       -0.041338 
     55 O30         2.907000    0.858000   -0.634000 O.co2     1 MAIN       -0.547908 
@<TRIPOS>BOND
     1    1   19 am   
     2    1    2 2    
     3    1    3 1    
     4    3    6 1    
     5    6    7 1    
     6    7    9 ar   
     7    7   11 ar   
     8    9   13 ar   
     9   11   15 ar   
    10   13   17 ar   
    11   15   17 ar   
    12   19   22 1    
    13   22   23 1    
    14   23   24 ar   
    15   23   25 ar   
    16   23   27 1    
    17   27   29 1    
    18   29   30 1    
    19   29   34 1    
    20   30   46 am   
    21   30   31 2    
    22   34   36 1    
    23   36   40 1    
    24   36   44 1    
    25   46   48 1    
    26   48   49 1    
    27   48   54 1    
    28   49   50 ar   
    29   49   55 ar   
    30   54   51 1    
    31   54   52 1    
    32   54   53 1    
    33   48   47 1    
    34   46   45 1    
    35   44   41 1    
    36   44   42 1    
    37   44   43 1    
    38   40   37 1    
    39   40   38 1    
    40   40   39 1    
    41   36   35 1    
    42   34   32 1    
    43   34   33 1    
    44   29   28 1    
    45   27   26 1    
    46   22   20 1    
    47   22   21 1    
    48   19   18 1    
    49   17   16 1    
    50   15   14 1    
    51   13   12 1    
    52   11   10 1    
    53    9    8 1    
    54    6    4 1    
    55    6    5 1    
@<TRIPOS>SUBSTRUCTURE
     1 MAIN        1 PERM              0 ****  ****    0 ROOT 
@<TRIPOS>NORMAL
@<TRIPOS>ALT_TYPE
MMFF94_ALT_TYPE_SET 
MMFF94 1 COO 2 O=CN 3 OC=O 4 HC 5 HC 6 CR 7 CB 8 HC 9 CB 10 HC 11 CB \
12 HC 13 CB 14 HC 15 CB 16 HC 17 CB 18 HNCO 19 NC=O 20 HC \
21 HC 22 CR 23 PO2 24 O2P 25 O2P 26 HNPO 27 NPO2 28 HC \
29 CR 30 C=ON 31 O=CN 32 HC 33 HC 34 CR 35 HC 36 CR 37 HC \
38 HC 39 HC 40 CR 41 HC 42 HC 43 HC 44 CR 45 HNCO 46 NC=O \
47 HC 48 CR 49 CO2M 50 O2CM 51 HC 52 HC 53 HC 54 CR \
55 O2CM 
@<TRIPOS>FF_PBC
FORCE_FIELD_SETUP_FEATURE Force Field Setup information
v1.0  0 0.000000 0.000000 0.000000 0.000000 0.000000 0.000000 NONE 0 0 0 0 0 0 0 0 0 0 0 0 0
