#	Name:			zgplg_min
#	Creating user name:	jeff
#	Creation time:		Thu Dec 19 11:49:55 2002

#	Modifying user name:	jeff
#	Modification time:	Thu Dec 19 11:49:55 2002

@<TRIPOS>MOLECULE
zgplg_min
   52    52     1     2     0
SMALL
GASTEIGER


@<TRIPOS>ATOM
      1 C1         -0.025000   -4.667000   -1.262000 C.2       1 MAIN        0.352894 
      2 H2         -1.978000   -3.815000   -1.798000 H         1 MAIN        0.151413 
      3 N2         -0.903000   -3.670000   -1.697000 N.am      1 MAIN       -0.284632 
      4 H32        -0.312000   -1.735000   -1.147000 H         1 MAIN        0.054053 
      5 H31         0.834000   -2.606000   -2.194000 H         1 MAIN        0.054053 
      6 C3         -0.220000   -2.401000   -2.005000 C.3       1 MAIN        0.065257 
      7 O5          1.206000   -4.522000   -1.300000 O.2       1 MAIN       -0.241345 
      8 O6         -0.576000   -5.802000   -0.764000 O.3       1 MAIN       -0.295145 
      9 H72         1.000000   -7.102000   -0.979000 H         1 MAIN        0.061655 
     10 H71         0.904000   -6.260000    0.586000 H         1 MAIN        0.061655 
     11 C7          0.326000   -6.748000   -0.200000 C.3       1 MAIN        0.083653 
     12 C8         -0.402000   -7.920000    0.387000 C.ar      1 MAIN       -0.021282 
     13 H9          0.396000   -9.323000   -1.041000 H         1 MAIN        0.062101 
     14 C9         -0.245000   -9.188000   -0.171000 C.ar      1 MAIN       -0.056372 
     15 H10        -1.351000   -6.760000    1.936000 H         1 MAIN        0.062101 
     16 C10        -1.225000   -7.750000    1.499000 C.ar      1 MAIN       -0.056372 
     17 H11        -0.783000  -11.273000   -0.057000 H         1 MAIN        0.061767 
     18 C11        -0.908000  -10.283000    0.382000 C.ar      1 MAIN       -0.061429 
     19 H12        -2.525000   -8.710000    2.926000 H         1 MAIN        0.061767 
     20 C12        -1.885000   -8.845000    2.054000 C.ar      1 MAIN       -0.061429 
     21 H13        -2.246000  -10.967000    1.927000 H         1 MAIN        0.061758 
     22 C13        -1.727000  -10.111000    1.494000 C.ar      1 MAIN       -0.061740 
     23 P14        -0.928000   -1.589000   -3.456000 P.3       1 MAIN        0.089214 
     24 O15         0.143000   -0.925000   -4.238000 O.co2     1 MAIN       -0.536354 
     25 O16        -1.613000   -2.734000   -4.427000 O.co2     1 MAIN       -0.536354 
     26 H17        -3.035000   -0.715000   -3.310000 H         1 MAIN        0.146673 
     27 N17        -2.073000   -0.453000   -2.871000 N.am      1 MAIN       -0.326654 
     28 H18        -1.773000    1.107000   -4.212000 H         1 MAIN        0.059344 
     29 C18        -1.853000    0.987000   -3.132000 C.3       1 MAIN        0.097522 
     30 C19        -0.573000    1.477000   -2.509000 C.2       1 MAIN        0.233554 
     31 O20         0.309000    2.065000   -3.146000 O.2       1 MAIN       -0.273774 
     32 H212       -3.959000    1.432000   -3.053000 H         1 MAIN        0.029026 
     33 H211       -3.080000    1.767000   -1.542000 H         1 MAIN        0.029026 
     34 C21        -3.035000    1.825000   -2.629000 C.3       1 MAIN       -0.023732 
     35 H22        -1.871000    3.619000   -2.755000 H         1 MAIN        0.029618 
     36 C22        -2.867000    3.291000   -3.051000 C.3       1 MAIN       -0.044593 
     37 H233       -2.857000    4.489000   -4.847000 H         1 MAIN        0.023234 
     38 H232       -2.202000    2.847000   -5.056000 H         1 MAIN        0.023234 
     39 H231       -3.959000    3.091000   -4.903000 H         1 MAIN        0.023234 
     40 C23        -2.980000    3.440000   -4.575000 C.3       1 MAIN       -0.062595 
     41 H243       -3.760000    5.210000   -2.653000 H         1 MAIN        0.023234 
     42 H242       -4.899000    3.844000   -2.602000 H         1 MAIN        0.023234 
     43 H241       -3.755000    4.099000   -1.263000 H         1 MAIN        0.023234 
     44 C24        -3.894000    4.174000   -2.342000 C.3       1 MAIN       -0.062595 
     45 H25        -1.211000    0.713000   -0.606000 H         1 MAIN        0.149116 
     46 N25        -0.442000    1.272000   -1.139000 N.am      1 MAIN       -0.308529 
     47 H262        1.216000    2.553000   -1.002000 H         1 MAIN        0.052331 
     48 H261        0.369000    2.247000    0.534000 H         1 MAIN        0.052331 
     49 C26         0.717000    1.797000   -0.396000 C.3       1 MAIN        0.051230 
     50 C27         1.695000    0.703000   -0.074000 C.2       1 MAIN        0.058802 
     51 O28         1.455000   -0.250000    0.658000 O.co2     1 MAIN       -0.548197 
     52 O29         2.919000    0.823000   -0.625000 O.co2     1 MAIN       -0.548197 
@<TRIPOS>BOND
     1    1    7 2    
     2    1    8 1    
     3    1    3 am   
     4    3    6 1    
     5    6   23 1    
     6    8   11 1    
     7   11   12 1    
     8   12   14 ar   
     9   12   16 ar   
    10   14   18 ar   
    11   16   20 ar   
    12   18   22 ar   
    13   20   22 ar   
    14   23   24 ar   
    15   23   25 ar   
    16   23   27 1    
    17   27   29 1    
    18   29   30 1    
    19   29   34 1    
    20   30   31 2    
    21   30   46 am   
    22   34   36 1    
    23   36   40 1    
    24   36   44 1    
    25   46   49 1    
    26   49   50 1    
    27   50   51 ar   
    28   50   52 ar   
    29   49   47 1    
    30   49   48 1    
    31   46   45 1    
    32   44   41 1    
    33   44   42 1    
    34   44   43 1    
    35   40   37 1    
    36   40   38 1    
    37   40   39 1    
    38   36   35 1    
    39   34   32 1    
    40   34   33 1    
    41   29   28 1    
    42   27   26 1    
    43   22   21 1    
    44   20   19 1    
    45   18   17 1    
    46   16   15 1    
    47   14   13 1    
    48   11    9 1    
    49   11   10 1    
    50    6    4 1    
    51    6    5 1    
    52    3    2 1    
@<TRIPOS>SUBSTRUCTURE
     1 MAIN        1 PERM              0 ****  ****    0 ROOT 
@<TRIPOS>NORMAL
@<TRIPOS>ALT_TYPE
MMFF94_ALT_TYPE_SET 
MMFF94 1 COO 2 HNCO 3 NC=O 4 HC 5 HC 6 CR 7 O=CN 8 OC=O 9 HC 10 HC 11 CR \
12 CB 13 HC 14 CB 15 HC 16 CB 17 HC 18 CB 19 HC 20 CB \
21 HC 22 CB 23 PO2 24 O2P 25 O2P 26 HNPO 27 NPO2 28 HC \
29 CR 30 C=ON 31 O=CN 32 HC 33 HC 34 CR 35 HC 36 CR 37 HC \
38 HC 39 HC 40 CR 41 HC 42 HC 43 HC 44 CR 45 HNCO 46 NC=O \
47 HC 48 HC 49 CR 50 CO2M 51 O2CM 52 O2CM 
@<TRIPOS>FF_PBC
FORCE_FIELD_SETUP_FEATURE Force Field Setup information
v1.0  0 0.000000 0.000000 0.000000 0.000000 0.000000 0.000000 NONE 0 0 0 0 0 0 0 0 0 0 0 0 0
