#	Name:			zgplnh2_min
#	Creating user name:	jeff
#	Creation time:		Thu Dec 19 11:49:55 2002

#	Modifying user name:	jeff
#	Modification time:	Thu Dec 19 11:49:55 2002

@<TRIPOS>MOLECULE
zgplnh2_min
   47    47     1     2     0
SMALL
GASTEIGER


@<TRIPOS>ATOM
      1 C1          0.021000   -4.740000   -1.269000 C.2       1 MAIN        0.352894 
      2 H2         -1.912000   -3.865000   -1.768000 H         1 MAIN        0.151413 
      3 N2         -0.834000   -3.722000   -1.690000 N.am      1 MAIN       -0.284632 
      4 H32        -0.270000   -1.781000   -1.161000 H         1 MAIN        0.054053 
      5 H31         0.864000   -2.635000   -2.237000 H         1 MAIN        0.054053 
      6 C3         -0.188000   -2.444000   -2.023000 C.3       1 MAIN        0.065257 
      7 O5          1.256000   -4.619000   -1.281000 O.2       1 MAIN       -0.241345 
      8 O6         -0.565000   -5.882000   -0.832000 O.3       1 MAIN       -0.295145 
      9 H72         0.920000   -7.257000   -1.210000 H         1 MAIN        0.061655 
     10 H71         1.057000   -6.381000    0.333000 H         1 MAIN        0.061655 
     11 C7          0.365000   -6.853000   -0.363000 C.3       1 MAIN        0.083653 
     12 C8         -0.347000   -7.968000    0.334000 C.ar      1 MAIN       -0.021282 
     13 H9          0.335000   -9.440000   -1.081000 H         1 MAIN        0.062101 
     14 C9         -0.246000   -9.258000   -0.176000 C.ar      1 MAIN       -0.056372 
     15 H10        -1.189000   -6.719000    1.880000 H         1 MAIN        0.062101 
     16 C10        -1.102000   -7.731000    1.484000 C.ar      1 MAIN       -0.056372 
     17 H11        -0.800000  -11.329000    0.061000 H         1 MAIN        0.061767 
     18 C11        -0.883000  -10.318000    0.461000 C.ar      1 MAIN       -0.061429 
     19 H12        -2.329000   -8.607000    3.026000 H         1 MAIN        0.061767 
     20 C12        -1.742000   -8.790000    2.126000 C.ar      1 MAIN       -0.061429 
     21 H13        -2.128000  -10.909000    2.118000 H         1 MAIN        0.061758 
     22 C13        -1.630000  -10.081000    1.615000 C.ar      1 MAIN       -0.061740 
     23 P14        -0.921000   -1.607000   -3.460000 P.3       1 MAIN        0.089214 
     24 O15         0.149000   -0.933000   -4.226000 O.co2     1 MAIN       -0.536354 
     25 O16        -1.606000   -2.731000   -4.455000 O.co2     1 MAIN       -0.536354 
     26 H17        -3.043000   -0.756000   -3.241000 H         1 MAIN        0.146673 
     27 N17        -2.065000   -0.464000   -2.859000 N.am      1 MAIN       -0.326659 
     28 H18        -1.858000    1.057000   -4.277000 H         1 MAIN        0.059337 
     29 C18        -1.878000    0.973000   -3.191000 C.3       1 MAIN        0.097307 
     30 C19        -0.578000    1.489000   -2.645000 C.2       1 MAIN        0.230725 
     31 O20         0.262000    2.086000   -3.319000 O.2       1 MAIN       -0.273998 
     32 H212       -3.980000    1.409000   -3.025000 H         1 MAIN        0.029026 
     33 H211       -3.035000    1.784000   -1.565000 H         1 MAIN        0.029026 
     34 C21        -3.042000    1.820000   -2.654000 C.3       1 MAIN       -0.023739 
     35 H22        -1.917000    3.631000   -2.868000 H         1 MAIN        0.029618 
     36 C22        -2.923000    3.287000   -3.108000 C.3       1 MAIN       -0.044593 
     37 H233       -3.024000    4.462000   -4.913000 H         1 MAIN        0.023234 
     38 H232       -2.352000    2.829000   -5.137000 H         1 MAIN        0.023234 
     39 H231       -4.103000    3.047000   -4.897000 H         1 MAIN        0.023234 
     40 C23        -3.114000    3.416000   -4.623000 C.3       1 MAIN       -0.062595 
     41 H243       -3.830000    5.199000   -2.694000 H         1 MAIN        0.023234 
     42 H242       -4.941000    3.813000   -2.565000 H         1 MAIN        0.023234 
     43 H241       -3.736000    4.110000   -1.289000 H         1 MAIN        0.023234 
     44 C24        -3.930000    4.166000   -2.360000 C.3       1 MAIN       -0.062595 
     45 H252        0.580000    1.641000   -0.835000 H         1 MAIN        0.144987 
     46 H251       -1.092000    0.779000   -0.676000 H         1 MAIN        0.144987 
     47 N25        -0.346000    1.288000   -1.287000 N.am      1 MAIN       -0.327799 
@<TRIPOS>BOND
     1    1    3 am   
     2    1    7 2    
     3    1    8 1    
     4    3    6 1    
     5    6   23 1    
     6    8   11 1    
     7   11   12 1    
     8   12   14 ar   
     9   12   16 ar   
    10   14   18 ar   
    11   16   20 ar   
    12   18   22 ar   
    13   20   22 ar   
    14   23   24 ar   
    15   23   25 ar   
    16   23   27 1    
    17   27   29 1    
    18   29   30 1    
    19   29   34 1    
    20   30   31 2    
    21   30   47 am   
    22   34   36 1    
    23   36   40 1    
    24   36   44 1    
    25   47   45 1    
    26   47   46 1    
    27   44   41 1    
    28   44   42 1    
    29   44   43 1    
    30   40   37 1    
    31   40   38 1    
    32   40   39 1    
    33   36   35 1    
    34   34   32 1    
    35   34   33 1    
    36   29   28 1    
    37   27   26 1    
    38   22   21 1    
    39   20   19 1    
    40   18   17 1    
    41   16   15 1    
    42   14   13 1    
    43   11    9 1    
    44   11   10 1    
    45    6    4 1    
    46    6    5 1    
    47    3    2 1    
@<TRIPOS>SUBSTRUCTURE
     1 MAIN        1 PERM              0 ****  ****    0 ROOT 
@<TRIPOS>NORMAL
@<TRIPOS>ALT_TYPE
MMFF94_ALT_TYPE_SET 
MMFF94 1 COO 2 HNCO 3 NC=O 4 HC 5 HC 6 CR 7 O=CN 8 OC=O 9 HC 10 HC 11 CR \
12 CB 13 HC 14 CB 15 HC 16 CB 17 HC 18 CB 19 HC 20 CB \
21 HC 22 CB 23 PO2 24 O2P 25 O2P 26 HNPO 27 NPO2 28 HC \
29 CR 30 C=ON 31 O=CN 32 HC 33 HC 34 CR 35 HC 36 CR 37 HC \
38 HC 39 HC 40 CR 41 HC 42 HC 43 HC 44 CR 45 HNCO 46 HNCO \
47 NC=O 
@<TRIPOS>FF_PBC
FORCE_FIELD_SETUP_FEATURE Force Field Setup information
v1.0  0 0.000000 0.000000 0.000000 0.000000 0.000000 0.000000 NONE 0 0 0 0 0 0 0 0 0 0 0 0 0
