#	Name:			zgpolg_min
#	Creating user name:	jeff
#	Creation time:		Thu Dec 19 11:49:55 2002

#	Modifying user name:	jeff
#	Modification time:	Thu Dec 19 11:49:55 2002

@<TRIPOS>MOLECULE
zgpolg_min
   51    51     1     2     0
SMALL
GASTEIGER


@<TRIPOS>ATOM
      1 C1          0.048000   -4.690000   -1.100000 C.2       1 MAIN        0.352915 
      2 H2         -1.819000   -3.726000   -1.672000 H         1 MAIN        0.151438 
      3 N2         -0.732000   -3.664000   -1.628000 N.am      1 MAIN       -0.283939 
      4 H32         0.160000   -1.805000   -1.293000 H         1 MAIN        0.054766 
      5 H31         0.968000   -2.826000   -2.506000 H         1 MAIN        0.054766 
      6 C3          0.004000   -2.493000   -2.123000 C.3       1 MAIN        0.073382 
      7 O5          1.284000   -4.649000   -1.061000 O.2       1 MAIN       -0.241344 
      8 O6         -0.632000   -5.751000   -0.611000 O.3       1 MAIN       -0.295145 
      9 H72         0.910000   -7.117000   -0.597000 H         1 MAIN        0.061655 
     10 H71         0.540000   -6.358000    0.970000 H         1 MAIN        0.061655 
     11 C7          0.110000   -6.767000    0.056000 C.3       1 MAIN        0.083653 
     12 C8         -0.784000   -7.918000    0.402000 C.ar      1 MAIN       -0.021282 
     13 H9         -1.611000   -6.952000    2.143000 H         1 MAIN        0.062101 
     14 C9         -1.618000   -7.843000    1.515000 C.ar      1 MAIN       -0.056372 
     15 H10        -0.121000   -9.129000   -1.255000 H         1 MAIN        0.062101 
     16 C10        -0.783000   -9.065000   -0.391000 C.ar      1 MAIN       -0.056372 
     17 H11        -3.119000   -8.847000    2.695000 H         1 MAIN        0.061767 
     18 C11        -2.463000   -8.908000    1.827000 C.ar      1 MAIN       -0.061429 
     19 H12        -1.628000  -11.020000   -0.705000 H         1 MAIN        0.061767 
     20 C12        -1.625000  -10.127000   -0.081000 C.ar      1 MAIN       -0.061429 
     21 H13        -3.128000  -10.881000    1.271000 H         1 MAIN        0.061758 
     22 C13        -2.467000  -10.049000    1.029000 C.ar      1 MAIN       -0.061740 
     23 P14        -0.868000   -1.614000   -3.445000 P.3       1 MAIN        0.138529 
     24 O15         0.120000   -0.923000   -4.300000 O.co2     1 MAIN       -0.529765 
     25 O16        -1.637000   -2.720000   -4.403000 O.co2     1 MAIN       -0.529765 
     26 O17        -1.902000   -0.532000   -2.723000 O.3       1 MAIN       -0.327175 
     27 H18        -1.732000    0.922000   -4.150000 H         1 MAIN        0.069696 
     28 C18        -1.778000    0.861000   -3.063000 C.3       1 MAIN        0.140367 
     29 C19        -0.521000    1.441000   -2.475000 C.2       1 MAIN        0.242621 
     30 O20         0.329000    2.051000   -3.131000 O.2       1 MAIN       -0.272950 
     31 H212       -3.903000    1.222000   -2.983000 H         1 MAIN        0.029754 
     32 H211       -3.026000    1.671000   -1.501000 H         1 MAIN        0.029754 
     33 C21        -2.993000    1.675000   -2.590000 C.3       1 MAIN       -0.015285 
     34 H22        -1.886000    3.484000   -2.882000 H         1 MAIN        0.029640 
     35 C22        -2.895000    3.127000   -3.088000 C.3       1 MAIN       -0.043905 
     36 H233       -3.049000    4.245000   -4.928000 H         1 MAIN        0.023234 
     37 H232       -2.370000    2.611000   -5.117000 H         1 MAIN        0.023234 
     38 H231       -4.116000    2.823000   -4.842000 H         1 MAIN        0.023234 
     39 C23        -3.124000    3.207000   -4.604000 C.3       1 MAIN       -0.062572 
     40 H243       -3.794000    5.049000   -2.711000 H         1 MAIN        0.023234 
     41 H242       -4.898000    3.669000   -2.505000 H         1 MAIN        0.023234 
     42 H241       -3.658000    4.007000   -1.274000 H         1 MAIN        0.023234 
     43 C24        -3.883000    4.028000   -2.341000 C.3       1 MAIN       -0.062572 
     44 H25        -1.138000    0.718000   -0.551000 H         1 MAIN        0.149139 
     45 N25        -0.373000    1.263000   -1.102000 N.am      1 MAIN       -0.307912 
     46 H262        1.306000    2.522000   -1.009000 H         1 MAIN        0.052331 
     47 H261        0.455000    2.285000    0.536000 H         1 MAIN        0.052331 
     48 C26         0.795000    1.796000   -0.377000 C.3       1 MAIN        0.051252 
     49 C27         1.754000    0.697000   -0.018000 C.2       1 MAIN        0.058802 
     50 O28         1.484000   -0.241000    0.728000 O.co2     1 MAIN       -0.548197 
     51 O29         2.990000    0.783000   -0.551000 O.co2     1 MAIN       -0.548197 
@<TRIPOS>BOND
     1    1    7 2    
     2    1    8 1    
     3    1    3 am   
     4    3    6 1    
     5    6   23 1    
     6    8   11 1    
     7   11   12 1    
     8   12   14 ar   
     9   12   16 ar   
    10   14   18 ar   
    11   16   20 ar   
    12   18   22 ar   
    13   20   22 ar   
    14   23   24 ar   
    15   23   25 ar   
    16   23   26 1    
    17   26   28 1    
    18   28   29 1    
    19   28   33 1    
    20   29   30 2    
    21   29   45 am   
    22   33   35 1    
    23   35   39 1    
    24   35   43 1    
    25   45   48 1    
    26   48   49 1    
    27   49   50 ar   
    28   49   51 ar   
    29   48   46 1    
    30   48   47 1    
    31   45   44 1    
    32   43   40 1    
    33   43   41 1    
    34   43   42 1    
    35   39   36 1    
    36   39   37 1    
    37   39   38 1    
    38   35   34 1    
    39   33   31 1    
    40   33   32 1    
    41   28   27 1    
    42   22   21 1    
    43   20   19 1    
    44   18   17 1    
    45   16   15 1    
    46   14   13 1    
    47   11    9 1    
    48   11   10 1    
    49    6    4 1    
    50    6    5 1    
    51    3    2 1    
@<TRIPOS>SUBSTRUCTURE
     1 MAIN        1 PERM              0 ****  ****    0 ROOT 
@<TRIPOS>NORMAL
@<TRIPOS>ALT_TYPE
MMFF94_ALT_TYPE_SET 
MMFF94 1 COO 2 HNCO 3 NC=O 4 HC 5 HC 6 CR 7 O=CN 8 OC=O 9 HC 10 HC 11 CR \
12 CB 13 HC 14 CB 15 HC 16 CB 17 HC 18 CB 19 HC 20 CB \
21 HC 22 CB 23 PO3 24 O2P 25 O2P 26 OPO2 27 HC 28 CR \
29 C=ON 30 O=CN 31 HC 32 HC 33 CR 34 HC 35 CR 36 HC 37 HC \
38 HC 39 CR 40 HC 41 HC 42 HC 43 CR 44 HNCO 45 NC=O 46 HC \
47 HC 48 CR 49 CO2M 50 O2CM 51 O2CM 
@<TRIPOS>FF_PBC
FORCE_FIELD_SETUP_FEATURE Force Field Setup information
v1.0  0 0.000000 0.000000 0.000000 0.000000 0.000000 0.000000 NONE 0 0 0 0 0 0 0 0 0 0 0 0 0
