#	Name:			zgpolnh2_min
#	Creating user name:	jeff
#	Creation time:		Thu Dec 19 11:49:55 2002

#	Modifying user name:	jeff
#	Modification time:	Thu Dec 19 11:49:55 2002

@<TRIPOS>MOLECULE
zgpolnh2_min
   46    46     1     2     0
SMALL
GASTEIGER


@<TRIPOS>ATOM
      1 C1          0.262000   -4.534000   -1.055000 C.2       1 MAIN        0.352915 
      2 H2         -1.695000   -3.844000   -1.779000 H         1 MAIN        0.151438 
      3 N2         -0.633000   -3.637000   -1.640000 N.am      1 MAIN       -0.283939 
      4 H32         0.027000   -1.696000   -1.201000 H         1 MAIN        0.054766 
      5 H31         1.037000   -2.593000   -2.360000 H         1 MAIN        0.054766 
      6 C3          0.014000   -2.379000   -2.050000 C.3       1 MAIN        0.073382 
      7 O5          1.483000   -4.332000   -1.026000 O.2       1 MAIN       -0.241344 
      8 O6         -0.282000   -5.639000   -0.498000 O.3       1 MAIN       -0.295145 
      9 H72         1.436000   -6.765000   -0.412000 H         1 MAIN        0.061655 
     10 H71         0.983000   -5.935000    1.096000 H         1 MAIN        0.061655 
     11 C7          0.604000   -6.481000    0.232000 C.3       1 MAIN        0.083653 
     12 C8         -0.094000   -7.721000    0.706000 C.ar      1 MAIN       -0.021282 
     13 H9          0.602000   -8.940000   -0.931000 H         1 MAIN        0.062101 
     14 C9          0.012000   -8.910000   -0.015000 C.ar      1 MAIN       -0.056372 
     15 H10        -0.939000   -6.757000    2.439000 H         1 MAIN        0.062101 
     16 C10        -0.856000   -7.685000    1.874000 C.ar      1 MAIN       -0.056372 
     17 H11        -0.548000  -10.991000   -0.132000 H         1 MAIN        0.061767 
     18 C11        -0.636000  -10.061000    0.431000 C.ar      1 MAIN       -0.061429 
     19 H12        -2.110000   -8.800000    3.230000 H         1 MAIN        0.061767 
     20 C12        -1.510000   -8.832000    2.320000 C.ar      1 MAIN       -0.061429 
     21 H13        -1.902000  -10.920000    1.950000 H         1 MAIN        0.061758 
     22 C13        -1.396000  -10.020000    1.599000 C.ar      1 MAIN       -0.061740 
     23 P14        -0.862000   -1.592000   -3.421000 P.3       1 MAIN        0.138529 
     24 O15         0.114000   -0.908000   -4.298000 O.co2     1 MAIN       -0.529765 
     25 O16        -1.598000   -2.769000   -4.326000 O.co2     1 MAIN       -0.529765 
     26 O17        -1.926000   -0.518000   -2.739000 O.3       1 MAIN       -0.327182 
     27 H18        -1.733000    0.957000   -4.139000 H         1 MAIN        0.069689 
     28 C18        -1.778000    0.869000   -3.053000 C.3       1 MAIN        0.140153 
     29 C19        -0.500000    1.408000   -2.463000 C.2       1 MAIN        0.239793 
     30 O20         0.337000    2.033000   -3.119000 O.2       1 MAIN       -0.273175 
     31 H212       -3.890000    1.276000   -2.999000 H         1 MAIN        0.029754 
     32 H211       -3.030000    1.645000   -1.485000 H         1 MAIN        0.029754 
     33 C21        -2.978000    1.693000   -2.573000 C.3       1 MAIN       -0.015292 
     34 H22        -1.860000    3.513000   -2.710000 H         1 MAIN        0.029640 
     35 C22        -2.849000    3.162000   -3.004000 C.3       1 MAIN       -0.043905 
     36 H233       -2.869000    4.359000   -4.800000 H         1 MAIN        0.023234 
     37 H232       -2.172000    2.735000   -5.009000 H         1 MAIN        0.023234 
     38 H231       -3.934000    2.933000   -4.857000 H         1 MAIN        0.023234 
     39 C23        -2.965000    3.308000   -4.528000 C.3       1 MAIN       -0.062572 
     40 H243       -3.799000    5.058000   -2.615000 H         1 MAIN        0.023234 
     41 H242       -4.899000    3.660000   -2.559000 H         1 MAIN        0.023234 
     42 H241       -3.764000    3.954000   -1.220000 H         1 MAIN        0.023234 
     43 C24        -3.904000    4.020000   -2.298000 C.3       1 MAIN       -0.062572 
     44 H252        0.618000    1.541000   -0.626000 H         1 MAIN        0.145010 
     45 H251       -1.030000    0.626000   -0.527000 H         1 MAIN        0.145010 
     46 N25        -0.289000    1.175000   -1.108000 N.am      1 MAIN       -0.327181 
@<TRIPOS>BOND
     1    1    3 am   
     2    1    7 2    
     3    1    8 1    
     4    3    6 1    
     5    6   23 1    
     6    8   11 1    
     7   11   12 1    
     8   12   14 ar   
     9   12   16 ar   
    10   14   18 ar   
    11   16   20 ar   
    12   18   22 ar   
    13   20   22 ar   
    14   23   24 ar   
    15   23   25 ar   
    16   23   26 1    
    17   26   28 1    
    18   28   29 1    
    19   28   33 1    
    20   29   30 2    
    21   29   46 am   
    22   33   35 1    
    23   35   39 1    
    24   35   43 1    
    25   46   44 1    
    26   46   45 1    
    27   43   40 1    
    28   43   41 1    
    29   43   42 1    
    30   39   36 1    
    31   39   37 1    
    32   39   38 1    
    33   35   34 1    
    34   33   31 1    
    35   33   32 1    
    36   28   27 1    
    37   22   21 1    
    38   20   19 1    
    39   18   17 1    
    40   16   15 1    
    41   14   13 1    
    42   11    9 1    
    43   11   10 1    
    44    6    4 1    
    45    6    5 1    
    46    3    2 1    
@<TRIPOS>SUBSTRUCTURE
     1 MAIN        1 PERM              0 ****  ****    0 ROOT 
@<TRIPOS>NORMAL
@<TRIPOS>ALT_TYPE
MMFF94_ALT_TYPE_SET 
MMFF94 1 COO 2 HNCO 3 NC=O 4 HC 5 HC 6 CR 7 O=CN 8 OC=O 9 HC 10 HC 11 CR \
12 CB 13 HC 14 CB 15 HC 16 CB 17 HC 18 CB 19 HC 20 CB \
21 HC 22 CB 23 PO3 24 O2P 25 O2P 26 OPO2 27 HC 28 CR \
29 C=ON 30 O=CN 31 HC 32 HC 33 CR 34 HC 35 CR 36 HC 37 HC \
38 HC 39 CR 40 HC 41 HC 42 HC 43 CR 44 HNCO 45 HNCO 46 NC=O \

@<TRIPOS>FF_PBC
FORCE_FIELD_SETUP_FEATURE Force Field Setup information
v1.0  0 0.000000 0.000000 0.000000 0.000000 0.000000 0.000000 NONE 0 0 0 0 0 0 0 0 0 0 0 0 0
