#	Name:			zgpolf_min
#	Creating user name:	jeff
#	Creation time:		Thu Dec 19 11:49:55 2002

#	Modifying user name:	jeff
#	Modification time:	Thu Dec 19 11:49:55 2002

@<TRIPOS>MOLECULE
zgpolf_min
   64    65     1     2     0
SMALL
GASTEIGER


@<TRIPOS>ATOM
      1 C1          0.402000   -4.557000   -0.840000 C.2       1 MAIN        0.352915 
      2 N2         -0.438000   -3.687000   -1.538000 N.am      1 MAIN       -0.283939 
      3 H32         0.355000   -1.762000   -1.325000 H         1 MAIN        0.054766 
      4 H31         1.144000   -2.774000   -2.558000 H         1 MAIN        0.054766 
      5 C3          0.188000   -2.490000   -2.119000 C.3       1 MAIN        0.073382 
      6 O5          1.608000   -4.332000   -0.668000 O.2       1 MAIN       -0.241344 
      7 O6         -0.210000   -5.661000   -0.346000 O.3       1 MAIN       -0.295145 
      8 H72         1.478000   -6.776000    0.016000 H         1 MAIN        0.061655 
      9 H71         0.759000   -5.982000    1.437000 H         1 MAIN        0.061655 
     10 C7          0.543000   -6.514000    0.512000 C.3       1 MAIN        0.083653 
     11 C8         -0.202000   -7.782000    0.843000 C.ar      1 MAIN       -0.021282 
     12 H9          0.601000   -8.874000   -0.838000 H         1 MAIN        0.062101 
     13 C9         -0.052000   -8.912000    0.035000 C.ar      1 MAIN       -0.056372 
     14 H10        -1.158000   -6.961000    2.593000 H         1 MAIN        0.062101 
     15 C10        -1.039000   -7.840000    1.958000 C.ar      1 MAIN       -0.056372 
     16 H11        -0.613000  -10.969000   -0.290000 H         1 MAIN        0.061767 
     17 C11        -0.734000  -10.089000    0.342000 C.ar      1 MAIN       -0.061429 
     18 H12        -2.373000   -9.057000    3.134000 H         1 MAIN        0.061767 
     19 C12        -1.719000   -9.017000    2.262000 C.ar      1 MAIN       -0.061429 
     20 H13        -2.102000  -11.064000    1.696000 H         1 MAIN        0.061758 
     21 C13        -1.568000  -10.144000    1.456000 C.ar      1 MAIN       -0.061740 
     22 P14        -0.838000   -1.723000   -3.405000 P.3       1 MAIN        0.138529 
     23 O15         0.036000   -1.000000   -4.365000 O.co2     1 MAIN       -0.529765 
     24 H1         -1.416256   -3.868848   -1.637769 H         1 MAIN        0.151438 
     25 O16        -1.616000   -2.911000   -4.251000 O.co2     1 MAIN       -0.529765 
     26 O17        -1.872000   -0.680000   -2.632000 O.3       1 MAIN       -0.327175 
     27 H18        -1.774000    0.835000   -3.971000 H         1 MAIN        0.069696 
     28 C18        -1.740000    0.729000   -2.887000 C.3       1 MAIN        0.140374 
     29 C19        -0.396000    1.283000   -2.433000 C.2       1 MAIN        0.242827 
     30 O20         0.350000    1.939000   -3.169000 O.2       1 MAIN       -0.272943 
     31 H212       -3.855000    1.116000   -2.670000 H         1 MAIN        0.029754 
     32 H211       -2.882000    1.543000   -1.242000 H         1 MAIN        0.029754 
     33 C21        -2.913000    1.549000   -2.331000 C.3       1 MAIN       -0.015285 
     34 H22        -1.780000    3.327000   -2.629000 H         1 MAIN        0.029640 
     35 C22        -2.794000    2.990000   -2.844000 C.3       1 MAIN       -0.043905 
     36 H233       -2.898000    4.093000   -4.693000 H         1 MAIN        0.023234 
     37 H232       -2.229000    2.452000   -4.853000 H         1 MAIN        0.023234 
     38 H231       -3.978000    2.680000   -4.618000 H         1 MAIN        0.023234 
     39 C23        -2.989000    3.059000   -4.361000 C.3       1 MAIN       -0.062572 
     40 H243       -3.618000    4.951000   -2.503000 H         1 MAIN        0.023234 
     41 H242       -4.767000    3.615000   -2.249000 H         1 MAIN        0.023234 
     42 H241       -3.498000    3.939000   -1.044000 H         1 MAIN        0.023234 
     43 C24        -3.737000    3.942000   -2.107000 C.3       1 MAIN       -0.062572 
     44 H25        -0.612000    0.617000   -0.371000 H         1 MAIN        0.149414 
     45 N25         0.051000    1.013000   -1.141000 N.am      1 MAIN       -0.304888 
     46 H26         1.964000    1.141000   -1.845000 H         1 MAIN        0.056314 
     47 C26         1.492000    1.299000   -0.875000 C.3       1 MAIN        0.066616 
     48 C27         2.139000    0.327000    0.071000 C.2       1 MAIN        0.062261 
     49 O28         1.546000   -0.365000    0.888000 O.co2     1 MAIN       -0.547888 
     50 H292        2.876000    2.932000   -0.601000 H         1 MAIN        0.033477 
     51 H291        1.274000    3.421000   -1.203000 H         1 MAIN        0.033477 
     52 C29         1.803000    2.767000   -0.510000 C.3       1 MAIN       -0.003914 
     53 C30         1.378000    3.101000    0.890000 C.ar      1 MAIN       -0.045254 
     54 H31        -0.644000    3.575000    0.314000 H         1 MAIN        0.062030 
     55 C31         0.065000    3.494000    1.137000 C.ar      1 MAIN       -0.058503 
     56 H32         3.312000    2.711000    1.758000 H         1 MAIN        0.062030 
     57 C32         2.281000    3.010000    1.949000 C.ar      1 MAIN       -0.058503 
     58 O33         3.486000    0.268000    0.029000 O.co2     1 MAIN       -0.547888 
     59 H34        -1.367000    4.093000    2.624000 H         1 MAIN        0.061766 
     60 C34        -0.339000    3.785000    2.435000 C.ar      1 MAIN       -0.061500 
     61 H35         2.583000    3.222000    4.076000 H         1 MAIN        0.061766 
     62 C35         1.874000    3.299000    3.252000 C.ar      1 MAIN       -0.061500 
     63 H36         0.233000    3.909000    4.512000 H         1 MAIN        0.061758 
     64 C36         0.558000    3.686000    3.497000 C.ar      1 MAIN       -0.061742 
@<TRIPOS>BOND
     1    1    2 am   
     2    1    6 2    
     3    1    7 1    
     4    2    5 1    
     5    5   22 1    
     6    7   10 1    
     7   10   11 1    
     8   11   13 ar   
     9   11   15 ar   
    10   13   17 ar   
    11   15   19 ar   
    12   17   21 ar   
    13   19   21 ar   
    14   22   23 ar   
    15   22   25 ar   
    16   22   26 1    
    17   26   28 1    
    18   28   29 1    
    19   28   33 1    
    20   29   45 am   
    21   29   30 2    
    22   33   35 1    
    23   35   43 1    
    24   35   39 1    
    25   45   47 1    
    26   47   52 1    
    27   47   48 1    
    28   48   49 ar   
    29   48   58 ar   
    30   52   53 1    
    31   53   55 ar   
    32   53   57 ar   
    33   55   60 ar   
    34   57   62 ar   
    35   60   64 ar   
    36   62   64 ar   
    37   64   63 1    
    38   62   61 1    
    39   60   59 1    
    40   57   56 1    
    41   55   54 1    
    42   52   50 1    
    43   52   51 1    
    44   47   46 1    
    45   45   44 1    
    46   43   40 1    
    47   43   41 1    
    48   43   42 1    
    49   39   36 1    
    50   39   37 1    
    51   39   38 1    
    52   35   34 1    
    53   33   31 1    
    54   33   32 1    
    55   28   27 1    
    56    2   24 1    
    57   21   20 1    
    58   19   18 1    
    59   17   16 1    
    60   15   14 1    
    61   13   12 1    
    62   10    8 1    
    63   10    9 1    
    64    5    3 1    
    65    5    4 1    
@<TRIPOS>SUBSTRUCTURE
     1 MAIN        1 PERM              0 ****  ****    0 ROOT 
@<TRIPOS>NORMAL
@<TRIPOS>ALT_TYPE
MMFF94_ALT_TYPE_SET 
MMFF94 1 COO 2 NC=O 3 HC 4 HC 5 CR 6 O=CN 7 OC=O 8 HC 9 HC 10 CR 11 CB \
12 HC 13 CB 14 HC 15 CB 16 HC 17 CB 18 HC 19 CB 20 HC \
21 CB 22 PO3 23 O2P 24 HNCO 25 O2P 26 OPO2 27 HC 28 CR \
29 C=ON 30 O=CN 31 HC 32 HC 33 CR 34 HC 35 CR 36 HC 37 HC \
38 HC 39 CR 40 HC 41 HC 42 HC 43 CR 44 HNCO 45 NC=O 46 HC \
47 CR 48 CO2M 49 O2CM 50 HC 51 HC 52 CR 53 CB 54 HC 55 CB \
56 HC 57 CB 58 O2CM 59 HC 60 CB 61 HC 62 CB 63 HC 64 CB \

@<TRIPOS>FF_PBC
FORCE_FIELD_SETUP_FEATURE Force Field Setup information
v1.0  0 0.000000 0.000000 0.000000 0.000000 0.000000 0.000000 NONE 0 0 0 0 0 0 0 0 0 0 0 0 0
