#	Name:			zgpola_min
#	Creating user name:	jeff
#	Creation time:		Thu Dec 19 11:49:55 2002

#	Modifying user name:	jeff
#	Modification time:	Thu Dec 19 11:49:55 2002

@<TRIPOS>MOLECULE
zgpola_min
   54    54     1     2     0
SMALL
GASTEIGER


@<TRIPOS>ATOM
      1 C1          0.160000   -4.638000   -1.088000 C.2       1 MAIN        0.352915 
      2 O2          1.382000   -4.464000   -0.966000 O.2       1 MAIN       -0.241344 
      3 O3         -0.429000   -5.791000   -0.690000 O.3       1 MAIN       -0.295145 
      4 H42         1.259000   -6.966000   -0.764000 H         1 MAIN        0.061655 
      5 H41         0.860000   -6.292000    0.835000 H         1 MAIN        0.061655 
      6 C4          0.448000   -6.732000   -0.074000 C.3       1 MAIN        0.083653 
      7 C5         -0.274000   -7.994000    0.278000 C.ar      1 MAIN       -0.021282 
      8 H6         -1.303000   -7.124000    1.960000 H         1 MAIN        0.062101 
      9 C6         -1.146000   -8.023000    1.364000 C.ar      1 MAIN       -0.056372 
     10 H7          0.614000   -9.121000   -1.327000 H         1 MAIN        0.062101 
     11 C7         -0.070000   -9.143000   -0.479000 C.ar      1 MAIN       -0.056372 
     12 H8         -2.499000   -9.222000    2.540000 H         1 MAIN        0.061767 
     13 C8         -1.816000   -9.200000    1.690000 C.ar      1 MAIN       -0.061429 
     14 H9         -0.577000  -11.223000   -0.748000 H         1 MAIN        0.061767 
     15 C9         -0.739000  -10.323000   -0.154000 C.ar      1 MAIN       -0.061429 
     16 H10        -2.140000  -11.271000    1.182000 H         1 MAIN        0.061758 
     17 C10        -1.614000  -10.350000    0.929000 C.ar      1 MAIN       -0.061740 
     18 H11        -1.759000   -3.823000   -1.747000 H         1 MAIN        0.151438 
     19 N11        -0.684000   -3.675000   -1.645000 N.am      1 MAIN       -0.283939 
     20 H122        0.059000   -1.767000   -1.235000 H         1 MAIN        0.054766 
     21 H121        0.996000   -2.706000   -2.421000 H         1 MAIN        0.054766 
     22 C12        -0.008000   -2.448000   -2.083000 C.3       1 MAIN        0.073382 
     23 P13        -0.875000   -1.605000   -3.435000 P.3       1 MAIN        0.138529 
     24 O14         0.114000   -0.926000   -4.300000 O.co2     1 MAIN       -0.529765 
     25 O15        -1.636000   -2.735000   -4.378000 O.co2     1 MAIN       -0.529765 
     26 O17        -1.915000   -0.513000   -2.739000 O.3       1 MAIN       -0.327175 
     27 H18        -1.738000    0.935000   -4.169000 H         1 MAIN        0.069696 
     28 C18        -1.788000    0.876000   -3.082000 C.3       1 MAIN        0.140374 
     29 C19        -0.533000    1.454000   -2.493000 C.2       1 MAIN        0.242810 
     30 O20         0.321000    2.061000   -3.148000 O.2       1 MAIN       -0.272943 
     31 H212       -3.907000    1.273000   -3.051000 H         1 MAIN        0.029754 
     32 H211       -3.068000    1.638000   -1.524000 H         1 MAIN        0.029754 
     33 C21        -3.002000    1.691000   -2.611000 C.3       1 MAIN       -0.015285 
     34 H22        -1.869000    3.501000   -2.751000 H         1 MAIN        0.029640 
     35 C22        -2.864000    3.162000   -3.039000 C.3       1 MAIN       -0.043905 
     36 H233       -2.886000    4.361000   -4.833000 H         1 MAIN        0.023234 
     37 H232       -2.203000    2.732000   -5.048000 H         1 MAIN        0.023234 
     38 H231       -3.963000    2.945000   -4.884000 H         1 MAIN        0.023234 
     39 C23        -2.988000    3.311000   -4.561000 C.3       1 MAIN       -0.062572 
     40 H243       -3.777000    5.071000   -2.639000 H         1 MAIN        0.023234 
     41 H242       -4.898000    3.691000   -2.566000 H         1 MAIN        0.023234 
     42 H241       -3.740000    3.967000   -1.243000 H         1 MAIN        0.023234 
     43 C24        -3.894000    4.035000   -2.320000 C.3       1 MAIN       -0.062572 
     44 H25        -1.135000    0.745000   -0.554000 H         1 MAIN        0.149392 
     45 N25        -0.382000    1.292000   -1.120000 N.am      1 MAIN       -0.305471 
     46 H26         1.305000    2.523000   -1.112000 H         1 MAIN        0.055714 
     47 C26         0.788000    1.855000   -0.424000 C.3       1 MAIN        0.059860 
     48 C27         1.752000    0.771000   -0.031000 C.2       1 MAIN        0.061677 
     49 O28         1.487000   -0.152000    0.732000 O.co2     1 MAIN       -0.547908 
     50 H293        1.230000    3.082000    1.293000 H         1 MAIN        0.025109 
     51 H292       -0.292000    3.493000    0.468000 H         1 MAIN        0.025109 
     52 H291       -0.197000    2.036000    1.485000 H         1 MAIN        0.025109 
     53 C29         0.351000    2.676000    0.793000 C.3       1 MAIN       -0.041338 
     54 O30         2.988000    0.852000   -0.564000 O.co2     1 MAIN       -0.547908 
@<TRIPOS>BOND
     1    1   19 am   
     2    1    2 2    
     3    1    3 1    
     4    3    6 1    
     5    6    7 1    
     6    7    9 ar   
     7    7   11 ar   
     8    9   13 ar   
     9   11   15 ar   
    10   13   17 ar   
    11   15   17 ar   
    12   19   22 1    
    13   22   23 1    
    14   23   24 ar   
    15   23   25 ar   
    16   23   26 1    
    17   26   28 1    
    18   28   29 1    
    19   28   33 1    
    20   29   45 am   
    21   29   30 2    
    22   33   35 1    
    23   35   39 1    
    24   35   43 1    
    25   45   47 1    
    26   47   48 1    
    27   47   53 1    
    28   48   49 ar   
    29   48   54 ar   
    30   53   50 1    
    31   53   51 1    
    32   53   52 1    
    33   47   46 1    
    34   45   44 1    
    35   43   40 1    
    36   43   41 1    
    37   43   42 1    
    38   39   36 1    
    39   39   37 1    
    40   39   38 1    
    41   35   34 1    
    42   33   31 1    
    43   33   32 1    
    44   28   27 1    
    45   22   20 1    
    46   22   21 1    
    47   19   18 1    
    48   17   16 1    
    49   15   14 1    
    50   13   12 1    
    51   11   10 1    
    52    9    8 1    
    53    6    4 1    
    54    6    5 1    
@<TRIPOS>SUBSTRUCTURE
     1 MAIN        1 PERM              0 ****  ****    0 ROOT 
@<TRIPOS>NORMAL
@<TRIPOS>ALT_TYPE
MMFF94_ALT_TYPE_SET 
MMFF94 1 COO 2 O=CN 3 OC=O 4 HC 5 HC 6 CR 7 CB 8 HC 9 CB 10 HC 11 CB \
12 HC 13 CB 14 HC 15 CB 16 HC 17 CB 18 HNCO 19 NC=O 20 HC \
21 HC 22 CR 23 PO3 24 O2P 25 O2P 26 OPO2 27 HC 28 CR \
29 C=ON 30 O=CN 31 HC 32 HC 33 CR 34 HC 35 CR 36 HC 37 HC \
38 HC 39 CR 40 HC 41 HC 42 HC 43 CR 44 HNCO 45 NC=O 46 HC \
47 CR 48 CO2M 49 O2CM 50 HC 51 HC 52 HC 53 CR 54 O2CM \

@<TRIPOS>FF_PBC
FORCE_FIELD_SETUP_FEATURE Force Field Setup information
v1.0  0 0.000000 0.000000 0.000000 0.000000 0.000000 0.000000 NONE 0 0 0 0 0 0 0 0 0 0 0 0 0
