#	Name:			zgpollzncrys_min
#	Creating user name:	jeff
#	Creation time:		Thu Dec 19 11:49:55 2002

#	Modifying user name:	jeff
#	Modification time:	Thu Dec 19 11:49:55 2002

@<TRIPOS>MOLECULE
zgpollzncrys_min
   63    63     1     2     0
SMALL
GASTEIGER


@<TRIPOS>ATOM
      1 C1          0.356000   -4.607000   -0.997000 C.2       1 MAIN        0.352915 
      2 O2          1.585000   -4.493000   -0.940000 O.2       1 MAIN       -0.241344 
      3 O3         -0.285000   -5.701000   -0.517000 O.3       1 MAIN       -0.295145 
      4 H42         1.303000   -7.010000   -0.590000 H         1 MAIN        0.061655 
      5 H41         0.901000   -6.378000    1.025000 H         1 MAIN        0.061655 
      6 C4          0.489000   -6.736000    0.081000 C.3       1 MAIN        0.083653 
      7 C5         -0.365000   -7.944000    0.341000 C.ar      1 MAIN       -0.021282 
      8 H6         -1.409000   -7.038000    1.994000 H         1 MAIN        0.062101 
      9 C6         -1.299000   -7.929000    1.375000 C.ar      1 MAIN       -0.056372 
     10 H7          0.503000   -9.104000   -1.255000 H         1 MAIN        0.062101 
     11 C7         -0.229000   -9.086000   -0.447000 C.ar      1 MAIN       -0.056372 
     12 H8         -2.819000   -9.031000    2.433000 H         1 MAIN        0.061767 
     13 C8         -2.093000   -9.047000    1.621000 C.ar      1 MAIN       -0.061429 
     14 H9         -0.917000  -11.096000   -0.825000 H         1 MAIN        0.061767 
     15 C9         -1.025000  -10.206000   -0.206000 C.ar      1 MAIN       -0.061429 
     16 H10        -2.581000  -11.058000    1.018000 H         1 MAIN        0.061758 
     17 C10        -1.957000  -10.185000    0.828000 C.ar      1 MAIN       -0.061740 
     18 H11        -1.544000   -3.743000   -1.571000 H         1 MAIN        0.151438 
     19 N11        -0.460000   -3.626000   -1.559000 N.am      1 MAIN       -0.283939 
     20 H122        0.335000   -1.697000   -1.343000 H         1 MAIN        0.054766 
     21 H121        1.133000   -2.710000   -2.569000 H         1 MAIN        0.054766 
     22 C12         0.174000   -2.426000   -2.137000 C.3       1 MAIN        0.073382 
     23 P13        -0.848000   -1.666000   -3.430000 P.3       1 MAIN        0.138529 
     24 O14         0.016000   -0.973000   -4.409000 O.co2     1 MAIN       -0.529765 
     25 O15        -1.626000   -2.869000   -4.251000 O.co2     1 MAIN       -0.529765 
     26 O16        -1.886000   -0.607000   -2.685000 O.3       1 MAIN       -0.327175 
     27 H17        -1.774000    0.840000   -4.115000 H         1 MAIN        0.069696 
     28 C17        -1.778000    0.785000   -3.026000 C.3       1 MAIN        0.140374 
     29 C18        -0.495000    1.377000   -2.507000 C.2       1 MAIN        0.242818 
     30 O19         0.315000    2.002000   -3.198000 O.2       1 MAIN       -0.272943 
     31 H202       -3.899000    1.144000   -2.877000 H         1 MAIN        0.029754 
     32 H201       -2.973000    1.592000   -1.424000 H         1 MAIN        0.029754 
     33 C20        -2.976000    1.596000   -2.514000 C.3       1 MAIN       -0.015285 
     34 H21        -1.884000    3.410000   -2.808000 H         1 MAIN        0.029640 
     35 C21        -2.890000    3.046000   -3.015000 C.3       1 MAIN       -0.043905 
     36 H223       -3.051000    4.159000   -4.859000 H         1 MAIN        0.023234 
     37 H222       -2.357000    2.530000   -5.043000 H         1 MAIN        0.023234 
     38 H221       -4.105000    2.727000   -4.771000 H         1 MAIN        0.023234 
     39 C22        -3.117000    3.121000   -4.532000 C.3       1 MAIN       -0.062572 
     40 H233       -3.799000    4.964000   -2.647000 H         1 MAIN        0.023234 
     41 H232       -4.895000    3.577000   -2.434000 H         1 MAIN        0.023234 
     42 H231       -3.655000    3.929000   -1.206000 H         1 MAIN        0.023234 
     43 C23        -3.881000    3.943000   -2.272000 C.3       1 MAIN       -0.062572 
     44 H24        -0.926000    0.697000   -0.496000 H         1 MAIN        0.149403 
     45 N24        -0.226000    1.213000   -1.154000 N.am      1 MAIN       -0.305196 
     46 H25         1.602000    2.080000   -1.523000 H         1 MAIN        0.055998 
     47 C25         1.043000    1.765000   -0.641000 C.3       1 MAIN        0.062900 
     48 C26         1.896000    0.727000    0.041000 C.2       1 MAIN        0.061953 
     49 O27         1.492000   -0.089000    0.861000 O.co2     1 MAIN       -0.547898 
     50 H282        1.829000    3.325000    0.613000 H         1 MAIN        0.028918 
     51 H281        0.502000    3.838000   -0.457000 H         1 MAIN        0.028918 
     52 C28         0.861000    3.044000    0.198000 C.3       1 MAIN       -0.026886 
     53 H29        -0.142000    1.831000    1.653000 H         1 MAIN        0.029616 
     54 C29        -0.138000    2.880000    1.358000 C.3       1 MAIN       -0.044701 
     55 H303       -2.243000    3.146000    1.757000 H         1 MAIN        0.023234 
     56 H302       -1.563000    4.312000    0.596000 H         1 MAIN        0.023234 
     57 H301       -1.870000    2.632000    0.094000 H         1 MAIN        0.023234 
     58 C30        -1.556000    3.271000    0.919000 C.3       1 MAIN       -0.062597 
     59 H313       -0.425000    3.612000    3.364000 H         1 MAIN        0.023234 
     60 H312        1.280000    3.426000    2.887000 H         1 MAIN        0.023234 
     61 H311        0.321000    4.786000    2.254000 H         1 MAIN        0.023234 
     62 C31         0.290000    3.738000    2.551000 C.3       1 MAIN       -0.062597 
     63 O32         3.206000    0.731000   -0.282000 O.co2     1 MAIN       -0.547898 
@<TRIPOS>BOND
     1    1   19 am   
     2    1    2 2    
     3    1    3 1    
     4    3    6 1    
     5    6    7 1    
     6    7    9 ar   
     7    7   11 ar   
     8    9   13 ar   
     9   11   15 ar   
    10   13   17 ar   
    11   15   17 ar   
    12   19   22 1    
    13   22   23 1    
    14   23   24 ar   
    15   23   25 ar   
    16   23   26 1    
    17   26   28 1    
    18   28   29 1    
    19   28   33 1    
    20   29   30 2    
    21   29   45 am   
    22   33   35 1    
    23   35   39 1    
    24   35   43 1    
    25   45   47 1    
    26   47   48 1    
    27   47   52 1    
    28   48   49 ar   
    29   48   63 ar   
    30   52   54 1    
    31   54   58 1    
    32   54   62 1    
    33   62   59 1    
    34   62   60 1    
    35   62   61 1    
    36   58   55 1    
    37   58   56 1    
    38   58   57 1    
    39   54   53 1    
    40   52   50 1    
    41   52   51 1    
    42   47   46 1    
    43   45   44 1    
    44   43   40 1    
    45   43   41 1    
    46   43   42 1    
    47   39   36 1    
    48   39   37 1    
    49   39   38 1    
    50   35   34 1    
    51   33   31 1    
    52   33   32 1    
    53   28   27 1    
    54   22   20 1    
    55   22   21 1    
    56   19   18 1    
    57   17   16 1    
    58   15   14 1    
    59   13   12 1    
    60   11   10 1    
    61    9    8 1    
    62    6    4 1    
    63    6    5 1    
@<TRIPOS>SUBSTRUCTURE
     1 MAIN        1 PERM              0 ****  ****    0 ROOT 
@<TRIPOS>NORMAL
@<TRIPOS>ALT_TYPE
MMFF94_ALT_TYPE_SET 
MMFF94 1 COO 2 O=CN 3 OC=O 4 HC 5 HC 6 CR 7 CB 8 HC 9 CB 10 HC 11 CB \
12 HC 13 CB 14 HC 15 CB 16 HC 17 CB 18 HNCO 19 NC=O 20 HC \
21 HC 22 CR 23 PO3 24 O2P 25 O2P 26 OPO2 27 HC 28 CR \
29 C=ON 30 O=CN 31 HC 32 HC 33 CR 34 HC 35 CR 36 HC 37 HC \
38 HC 39 CR 40 HC 41 HC 42 HC 43 CR 44 HNCO 45 NC=O 46 HC \
47 CR 48 CO2M 49 O2CM 50 HC 51 HC 52 CR 53 HC 54 CR 55 HC \
56 HC 57 HC 58 CR 59 HC 60 HC 61 HC 62 CR 63 O2CM 
@<TRIPOS>FF_PBC
FORCE_FIELD_SETUP_FEATURE Force Field Setup information
v1.0  0 0.000000 0.000000 0.000000 0.000000 0.000000 0.000000 NONE 0 0 0 0 0 0 0 0 0 0 0 0 0
