#	Name:			zlgnh2_min
#	Creating user name:	jeff
#	Creation time:		Thu Dec 19 11:49:55 2002

#	Modifying user name:	jeff
#	Modification time:	Thu Dec 19 11:49:55 2002

@<TRIPOS>MOLECULE
zlgnh2_min
   46    46     1     2     0
SMALL
GASTEIGER


@<TRIPOS>ATOM
      1 H1          6.827000    3.150000   -1.196000 H         1 MAIN        0.061767 
      2 C1          6.781000    2.422000   -0.386000 C.ar      1 MAIN       -0.061429 
      3 H2          4.800000    1.751000   -0.902000 H         1 MAIN        0.062101 
      4 C2          5.643000    1.634000   -0.221000 C.ar      1 MAIN       -0.056372 
      5 H32        -1.560000   -1.080000   -1.158000 H         1 MAIN        0.055765 
      6 H31         0.129000   -1.517000   -1.515000 H         1 MAIN        0.055765 
      7 C3         -0.815000   -1.185000   -1.947000 C.3       1 MAIN        0.087945 
      8 C4          5.578000    0.699000    0.810000 C.ar      1 MAIN       -0.021282 
      9 H6         -1.364000    0.288000   -3.439000 H         1 MAIN        0.149242 
     10 N6         -0.634000    0.090000   -2.654000 N.am      1 MAIN       -0.305198 
     11 H7          2.215000    1.239000   -1.638000 H         1 MAIN        0.059522 
     12 C7          1.196000    1.386000   -1.282000 C.3       1 MAIN        0.101720 
     13 H8         -0.034000    0.208000    0.123000 H         1 MAIN        0.151724 
     14 N8          0.986000    0.474000   -0.155000 N.am      1 MAIN       -0.280048 
     15 C9          0.322000    1.083000   -2.478000 C.2       1 MAIN        0.233831 
     16 O10         0.485000    1.718000   -3.511000 O.2       1 MAIN       -0.273769 
     17 H11         6.611000   -0.164000    2.493000 H         1 MAIN        0.062101 
     18 C11         6.658000    0.562000    1.681000 C.ar      1 MAIN       -0.056372 
     19 C13        -1.282000   -2.151000   -2.976000 C.2       1 MAIN        0.227661 
     20 O14        -0.761000   -2.192000   -4.084000 O.2       1 MAIN       -0.274312 
     21 H16        -0.181000    2.086000    0.798000 H         1 MAIN        0.029618 
     22 C16        -0.167000    2.978000    0.171000 C.3       1 MAIN       -0.044590 
     23 H173        0.973000    4.147000    1.575000 H         1 MAIN        0.023234 
     24 H172       -0.017000    5.108000    0.450000 H         1 MAIN        0.023234 
     25 H171       -0.790000    4.242000    1.800000 H         1 MAIN        0.023234 
     26 C17         0.013000    4.207000    1.063000 C.3       1 MAIN       -0.062595 
     27 H182       -2.762000   -3.635000   -3.438000 H         1 MAIN        0.144978 
     28 H181       -2.915000   -2.807000   -1.748000 H         1 MAIN        0.144978 
     29 N18        -2.398000   -2.918000   -2.701000 N.am      1 MAIN       -0.328034 
     30 H20         8.638000    1.238000    2.204000 H         1 MAIN        0.061767 
     31 C20         7.797000    1.349000    1.520000 C.ar      1 MAIN       -0.061429 
     32 H21         8.751000    2.892000    0.354000 H         1 MAIN        0.061758 
     33 C21         7.860000    2.278000    0.484000 C.ar      1 MAIN       -0.061740 
     34 H222        4.633000   -1.199000    0.682000 H         1 MAIN        0.061655 
     35 H221        4.063000   -0.171000    2.018000 H         1 MAIN        0.061655 
     36 C22         4.372000   -0.182000    0.973000 C.3       1 MAIN        0.083653 
     37 O23         3.291000    0.270000    0.164000 O.3       1 MAIN       -0.295140 
     38 C24         2.042000   -0.064000    0.573000 C.2       1 MAIN        0.353131 
     39 O25         1.851000   -0.787000    1.555000 O.2       1 MAIN       -0.241337 
     40 H353       -1.620000    2.149000   -1.193000 H         1 MAIN        0.023234 
     41 H352       -2.324000    3.062000    0.164000 H         1 MAIN        0.023234 
     42 H351       -1.551000    3.928000   -1.185000 H         1 MAIN        0.023234 
     43 C35        -1.513000    3.033000   -0.564000 C.3       1 MAIN       -0.062595 
     44 H412        1.932000    3.151000   -0.291000 H         1 MAIN        0.029029 
     45 H411        0.848000    3.477000   -1.665000 H         1 MAIN        0.029029 
     46 C41         1.021000    2.836000   -0.800000 C.3       1 MAIN       -0.023556 
@<TRIPOS>BOND
     1    4    2 ar   
     2    2   33 ar   
     3    8    4 ar   
     4    7   19 1    
     5   10    7 1    
     6    8   18 ar   
     7   36    8 1    
     8   15   10 am   
     9   14   12 1    
    10   12   15 1    
    11   12   46 1    
    12   38   14 am   
    13   15   16 2    
    14   18   31 ar   
    15   19   20 2    
    16   19   29 am   
    17   22   26 1    
    18   22   43 1    
    19   46   22 1    
    20   31   33 ar   
    21   37   36 1    
    22   37   38 1    
    23   38   39 2    
    24   46   44 1    
    25   46   45 1    
    26   43   40 1    
    27   43   41 1    
    28   43   42 1    
    29   36   34 1    
    30   36   35 1    
    31   33   32 1    
    32   31   30 1    
    33   29   27 1    
    34   29   28 1    
    35   26   23 1    
    36   26   24 1    
    37   26   25 1    
    38   22   21 1    
    39   18   17 1    
    40   14   13 1    
    41   12   11 1    
    42   10    9 1    
    43    7    5 1    
    44    7    6 1    
    45    4    3 1    
    46    2    1 1    
@<TRIPOS>SUBSTRUCTURE
     1 MAIN        1 PERM              0 ****  ****    0 ROOT 
@<TRIPOS>NORMAL
@<TRIPOS>ALT_TYPE
MMFF94_ALT_TYPE_SET 
MMFF94 1 HC 2 CB 3 HC 4 CB 5 HC 6 HC 7 CR 8 CB 9 HNCO 10 NC=O 11 HC \
12 CR 13 HNCO 14 NC=O 15 C=ON 16 O=CN 17 HC 18 CB 19 C=ON \
20 O=CN 21 HC 22 CR 23 HC 24 HC 25 HC 26 CR 27 HNCO \
28 HNCO 29 NC=O 30 HC 31 CB 32 HC 33 CB 34 HC 35 HC \
36 CR 37 OC=O 38 COO 39 O=CN 40 HC 41 HC 42 HC 43 CR \
44 HC 45 HC 46 CR 
@<TRIPOS>FF_PBC
FORCE_FIELD_SETUP_FEATURE Force Field Setup information
v1.0  0 0.000000 0.000000 0.000000 0.000000 0.000000 0.000000 NONE 0 0 0 0 0 0 0 0 0 0 0 0 0
