#	Name:			zlpola_min
#	Creating user name:	jeff
#	Creation time:		Thu Dec 19 11:49:55 2002

#	Modifying user name:	jeff
#	Modification time:	Thu Dec 19 11:49:55 2002

@<TRIPOS>MOLECULE
zlpola_min
   66    66     1     2     0
SMALL
GASTEIGER


@<TRIPOS>ATOM
      1 C1         -1.208000   -5.268000   -3.659000 C.2       1 MAIN        0.353114 
      2 O2         -2.437000   -5.297000   -3.477000 O.2       1 MAIN       -0.241337 
      3 O3         -0.582000   -6.251000   -4.350000 O.3       1 MAIN       -0.295140 
      4 H42        -2.039000   -7.685000   -4.113000 H         1 MAIN        0.061655 
      5 H41        -1.941000   -6.947000   -5.730000 H         1 MAIN        0.061655 
      6 C4         -1.362000   -7.313000   -4.882000 C.3       1 MAIN        0.083653 
      7 C5         -0.466000   -8.424000   -5.335000 C.ar      1 MAIN       -0.021282 
      8 H6         -0.700000   -7.976000   -7.431000 H         1 MAIN        0.062101 
      9 C6         -0.228000   -8.625000   -6.694000 C.ar      1 MAIN       -0.056372 
     10 H7         -0.037000   -9.094000   -3.333000 H         1 MAIN        0.062101 
     11 C7          0.144000   -9.253000   -4.396000 C.ar      1 MAIN       -0.056372 
     12 H8          0.796000   -9.812000   -8.172000 H         1 MAIN        0.061767 
     13 C8          0.612000   -9.656000   -7.109000 C.ar      1 MAIN       -0.061429 
     14 H9          1.456000  -10.934000   -4.074000 H         1 MAIN        0.061767 
     15 C9          0.983000  -10.285000   -4.811000 C.ar      1 MAIN       -0.061429 
     16 H10         1.873000  -11.294000   -6.497000 H         1 MAIN        0.061758 
     17 C10         1.217000  -10.487000   -6.170000 C.ar      1 MAIN       -0.061740 
     18 H11         0.731000   -4.373000   -3.479000 H         1 MAIN        0.151704 
     19 N11        -0.324000   -4.271000   -3.225000 N.am      1 MAIN       -0.281222 
     20 H12        -1.651000   -3.346000   -1.900000 H         1 MAIN        0.058439 
     21 C12        -0.740000   -3.090000   -2.442000 C.3       1 MAIN        0.084886 
     22 P13        -1.093000   -1.700000   -3.549000 P.3       1 MAIN        0.141733 
     23 O14         0.109000   -1.157000   -4.188000 O.co2     1 MAIN       -0.529592 
     24 O15        -1.908000   -2.300000   -4.815000 O.co2     1 MAIN       -0.529592 
     25 H162        1.287000   -2.618000   -1.894000 H         1 MAIN        0.029019 
     26 H161        0.049000   -1.747000   -0.957000 H         1 MAIN        0.029019 
     27 C16         0.319000   -2.705000   -1.401000 C.3       1 MAIN       -0.024661 
     28 H17         0.505000   -4.742000   -0.761000 H         1 MAIN        0.029618 
     29 C17         0.414000   -3.761000   -0.293000 C.3       1 MAIN       -0.044602 
     30 H183        1.706000   -4.273000    1.355000 H         1 MAIN        0.023234 
     31 H182        2.547000   -3.569000   -0.047000 H         1 MAIN        0.023234 
     32 H181        1.586000   -2.527000    1.029000 H         1 MAIN        0.023234 
     33 C18         1.652000   -3.515000    0.573000 C.3       1 MAIN       -0.062594 
     34 H193       -0.765000   -4.512000    1.352000 H         1 MAIN        0.023234 
     35 H192       -0.976000   -2.774000    1.031000 H         1 MAIN        0.023234 
     36 H191       -1.720000   -3.976000   -0.051000 H         1 MAIN        0.023234 
     37 C19        -0.854000   -3.755000    0.572000 C.3       1 MAIN       -0.062594 
     38 O23        -1.921000   -0.543000   -2.697000 O.3       1 MAIN       -0.326949 
     39 H24        -1.736000    0.869000   -4.168000 H         1 MAIN        0.069697 
     40 C24        -1.778000    0.827000   -3.080000 C.3       1 MAIN        0.140382 
     41 C25        -0.510000    1.399000   -2.511000 C.2       1 MAIN        0.242810 
     42 O26         0.334000    2.011000   -3.171000 O.2       1 MAIN       -0.272943 
     43 H272       -3.896000    1.214000   -2.985000 H         1 MAIN        0.029754 
     44 H271       -3.001000    1.653000   -1.510000 H         1 MAIN        0.029754 
     45 C27        -2.977000    1.656000   -2.599000 C.3       1 MAIN       -0.015285 
     46 H28        -1.855000    3.456000   -2.887000 H         1 MAIN        0.029640 
     47 C28        -2.865000    3.104000   -3.098000 C.3       1 MAIN       -0.043905 
     48 H293       -2.998000    4.220000   -4.941000 H         1 MAIN        0.023234 
     49 H292       -2.329000    2.580000   -5.122000 H         1 MAIN        0.023234 
     50 H291       -4.075000    2.805000   -4.860000 H         1 MAIN        0.023234 
     51 C29        -3.083000    3.183000   -4.615000 C.3       1 MAIN       -0.062572 
     52 H303       -3.753000    5.031000   -2.726000 H         1 MAIN        0.023234 
     53 H302       -4.867000    3.657000   -2.527000 H         1 MAIN        0.023234 
     54 H301       -3.631000    3.988000   -1.289000 H         1 MAIN        0.023234 
     55 C30        -3.850000    4.010000   -2.357000 C.3       1 MAIN       -0.062572 
     56 H31        -1.095000    0.694000   -0.564000 H         1 MAIN        0.149392 
     57 N31        -0.347000    1.240000   -1.138000 N.am      1 MAIN       -0.305471 
     58 H32         1.362000    2.435000   -1.167000 H         1 MAIN        0.055714 
     59 C32         0.830000    1.805000   -0.454000 C.3       1 MAIN        0.059860 
     60 C33         1.777000    0.725000   -0.014000 C.2       1 MAIN        0.061677 
     61 O34         1.490000   -0.176000    0.768000 O.co2     1 MAIN       -0.547908 
     62 H353        1.283000    3.084000    1.221000 H         1 MAIN        0.025109 
     63 H352       -0.226000    3.494000    0.371000 H         1 MAIN        0.025109 
     64 H351       -0.165000    2.072000    1.440000 H         1 MAIN        0.025109 
     65 C35         0.400000    2.676000    0.730000 C.3       1 MAIN       -0.041338 
     66 O36         3.029000    0.786000   -0.515000 O.co2     1 MAIN       -0.547908 
@<TRIPOS>BOND
     1    1    2 2    
     2    1    3 1    
     3    1   19 am   
     4    3    6 1    
     5    6    7 1    
     6    7    9 ar   
     7    7   11 ar   
     8    9   13 ar   
     9   11   15 ar   
    10   13   17 ar   
    11   15   17 ar   
    12   19   21 1    
    13   21   27 1    
    14   21   22 1    
    15   22   24 ar   
    16   22   38 1    
    17   22   23 ar   
    18   27   29 1    
    19   29   33 1    
    20   29   37 1    
    21   38   40 1    
    22   40   41 1    
    23   40   45 1    
    24   41   42 2    
    25   41   57 am   
    26   45   47 1    
    27   47   51 1    
    28   47   55 1    
    29   57   59 1    
    30   59   60 1    
    31   59   65 1    
    32   60   61 ar   
    33   60   66 ar   
    34   65   62 1    
    35   65   63 1    
    36   65   64 1    
    37   59   58 1    
    38   57   56 1    
    39   55   52 1    
    40   55   53 1    
    41   55   54 1    
    42   51   48 1    
    43   51   49 1    
    44   51   50 1    
    45   47   46 1    
    46   45   43 1    
    47   45   44 1    
    48   40   39 1    
    49   37   34 1    
    50   37   35 1    
    51   37   36 1    
    52   33   30 1    
    53   33   31 1    
    54   33   32 1    
    55   29   28 1    
    56   27   25 1    
    57   27   26 1    
    58   21   20 1    
    59   19   18 1    
    60   17   16 1    
    61   15   14 1    
    62   13   12 1    
    63   11   10 1    
    64    9    8 1    
    65    6    4 1    
    66    6    5 1    
@<TRIPOS>SUBSTRUCTURE
     1 MAIN        1 PERM              0 ****  ****    0 ROOT 
@<TRIPOS>NORMAL
@<TRIPOS>ALT_TYPE
MMFF94_ALT_TYPE_SET 
MMFF94 1 COO 2 O=CN 3 OC=O 4 HC 5 HC 6 CR 7 CB 8 HC 9 CB 10 HC 11 CB \
12 HC 13 CB 14 HC 15 CB 16 HC 17 CB 18 HNCO 19 NC=O 20 HC \
21 CR 22 PO3 23 O2P 24 O2P 25 HC 26 HC 27 CR 28 HC 29 CR \
30 HC 31 HC 32 HC 33 CR 34 HC 35 HC 36 HC 37 CR 38 OPO2 \
39 HC 40 CR 41 C=ON 42 O=CN 43 HC 44 HC 45 CR 46 HC \
47 CR 48 HC 49 HC 50 HC 51 CR 52 HC 53 HC 54 HC 55 CR \
56 HNCO 57 NC=O 58 HC 59 CR 60 CO2M 61 O2CM 62 HC 63 HC \
64 HC 65 CR 66 O2CM 
@<TRIPOS>FF_PBC
FORCE_FIELD_SETUP_FEATURE Force Field Setup information
v1.0  0 0.000000 0.000000 0.000000 0.000000 0.000000 0.000000 NONE 0 0 0 0 0 0 0 0 0 0 0 0 0
