#	Name:			zygnh2_min
#	Creating user name:	jeff
#	Creation time:		Thu Dec 19 11:49:55 2002

#	Modifying user name:	jeff
#	Modification time:	Thu Dec 19 11:49:55 2002

@<TRIPOS>MOLECULE
zygnh2_min
   48    49     1     2     0
SMALL
GASTEIGER


@<TRIPOS>ATOM
      1 H1          8.769000    1.291000    2.137000 H         1 MAIN        0.061767 
      2 C1          7.902000    1.382000    1.484000 C.ar      1 MAIN       -0.061429 
      3 H2          6.764000   -0.115000    2.536000 H         1 MAIN        0.062101 
      4 C2          6.775000    0.593000    1.707000 C.ar      1 MAIN       -0.056372 
      5 H32         0.233000   -1.539000   -1.575000 H         1 MAIN        0.055765 
      6 H31        -1.440000   -1.197000   -1.074000 H         1 MAIN        0.055765 
      7 C3         -0.752000   -1.224000   -1.919000 C.3       1 MAIN        0.087945 
      8 C4          5.662000    0.704000    0.875000 C.ar      1 MAIN       -0.021282 
      9 H6         -1.536000    0.392000   -3.156000 H         1 MAIN        0.149242 
     10 N6         -0.673000    0.098000   -2.558000 N.am      1 MAIN       -0.305190 
     11 H7          2.327000    0.724000   -1.811000 H         1 MAIN        0.059842 
     12 C7          1.414000    1.174000   -1.421000 C.3       1 MAIN        0.105422 
     13 H8          0.083000    0.226000    0.083000 H         1 MAIN        0.151735 
     14 N8          1.122000    0.413000   -0.190000 N.am      1 MAIN       -0.279737 
     15 C9          0.366000    1.020000   -2.495000 C.2       1 MAIN        0.234143 
     16 O10         0.473000    1.697000   -3.511000 O.2       1 MAIN       -0.273757 
     17 H11         4.811000    1.712000   -0.829000 H         1 MAIN        0.062101 
     18 C11         5.681000    1.616000   -0.179000 C.ar      1 MAIN       -0.056372 
     19 C13        -1.255000   -2.152000   -2.966000 C.2       1 MAIN        0.227661 
     20 O14        -0.742000   -2.191000   -4.078000 O.2       1 MAIN       -0.274312 
     21 C17         1.112000    3.111000    0.166000 C.ar      1 MAIN       -0.044983 
     22 H182       -2.791000   -3.567000   -3.456000 H         1 MAIN        0.144978 
     23 H181       -2.913000   -2.765000   -1.751000 H         1 MAIN        0.144978 
     24 N18        -2.400000   -2.879000   -2.706000 N.am      1 MAIN       -0.328034 
     25 H20         6.816000    3.116000   -1.233000 H         1 MAIN        0.061767 
     26 C20         6.806000    2.406000   -0.406000 C.ar      1 MAIN       -0.061429 
     27 H21         8.800000    2.903000    0.247000 H         1 MAIN        0.061758 
     28 C21         7.918000    2.288000    0.425000 C.ar      1 MAIN       -0.061740 
     29 H222        4.742000   -1.211000    0.924000 H         1 MAIN        0.061655 
     30 H221        4.129000   -0.059000    2.135000 H         1 MAIN        0.061655 
     31 C22         4.464000   -0.173000    1.104000 C.3       1 MAIN        0.083653 
     32 O23         3.403000    0.185000    0.226000 O.3       1 MAIN       -0.295140 
     33 C24         2.135000   -0.071000    0.630000 C.2       1 MAIN        0.353140 
     34 O25         1.894000   -0.679000    1.676000 O.2       1 MAIN       -0.241337 
     35 H34         3.058000    3.440000    1.035000 H         1 MAIN        0.062109 
     36 C34         1.981000    3.437000    1.208000 C.ar      1 MAIN       -0.056071 
     37 H35         2.156000    4.026000    3.278000 H         1 MAIN        0.064328 
     38 C35         1.482000    3.759000    2.464000 C.ar      1 MAIN       -0.031681 
     39 C36         0.102000    3.733000    2.666000 C.ar      1 MAIN        0.072598 
     40 H37        -1.857000    3.466000    1.791000 H         1 MAIN        0.064328 
     41 C37        -0.780000    3.450000    1.622000 C.ar      1 MAIN       -0.031681 
     42 H38        -0.948000    2.941000   -0.463000 H         1 MAIN        0.062109 
     43 C38        -0.271000    3.148000    0.365000 C.ar      1 MAIN       -0.056071 
     44 H412        2.780000    2.817000   -1.113000 H         1 MAIN        0.033589 
     45 H411        1.271000    3.263000   -1.944000 H         1 MAIN        0.033589 
     46 C41         1.701000    2.665000   -1.141000 C.3       1 MAIN       -0.000583 
     47 H43        -1.469000    3.945000    4.093000 H         1 MAIN        0.217313 
     48 O43        -0.393000    3.962000    3.920000 O.3       1 MAIN       -0.359832 
@<TRIPOS>BOND
     1    2   28 ar   
     2    4    2 ar   
     3    8    4 ar   
     4   10    7 1    
     5    7   19 1    
     6    8   18 ar   
     7   31    8 1    
     8   15   10 am   
     9   14   12 1    
    10   12   15 1    
    11   12   46 1    
    12   33   14 am   
    13   15   16 2    
    14   18   26 ar   
    15   19   20 2    
    16   19   24 am   
    17   21   36 ar   
    18   21   43 ar   
    19   46   21 1    
    20   26   28 ar   
    21   32   31 1    
    22   32   33 1    
    23   33   34 2    
    24   36   38 ar   
    25   38   39 ar   
    26   39   41 ar   
    27   39   48 1    
    28   41   43 ar   
    29   48   47 1    
    30   46   44 1    
    31   46   45 1    
    32   43   42 1    
    33   41   40 1    
    34   38   37 1    
    35   36   35 1    
    36   31   29 1    
    37   31   30 1    
    38   28   27 1    
    39   26   25 1    
    40   24   22 1    
    41   24   23 1    
    42   18   17 1    
    43   14   13 1    
    44   12   11 1    
    45   10    9 1    
    46    7    5 1    
    47    7    6 1    
    48    4    3 1    
    49    2    1 1    
@<TRIPOS>SUBSTRUCTURE
     1 MAIN        1 PERM              0 ****  ****    0 ROOT 
@<TRIPOS>NORMAL
@<TRIPOS>ALT_TYPE
MMFF94_ALT_TYPE_SET 
MMFF94 1 HC 2 CB 3 HC 4 CB 5 HC 6 HC 7 CR 8 CB 9 HNCO 10 NC=O 11 HC \
12 CR 13 HNCO 14 NC=O 15 C=ON 16 O=CN 17 HC 18 CB 19 C=ON \
20 O=CN 21 CB 22 HNCO 23 HNCO 24 NC=O 25 HC 26 CB 27 HC \
28 CB 29 HC 30 HC 31 CR 32 OC=O 33 COO 34 O=CN 35 HC \
36 CB 37 HC 38 CB 39 CB 40 HC 41 CB 42 HC 43 CB 44 HC \
45 HC 46 CR 47 HOCC 48 OC=C 
@<TRIPOS>FF_PBC
FORCE_FIELD_SETUP_FEATURE Force Field Setup information
v1.0  0 0.000000 0.000000 0.000000 0.000000 0.000000 0.000000 NONE 0 0 0 0 0 0 0 0 0 0 0 0 0
